<?xml version="1.0" encoding="UTF-8"?>

<!-- generated on 2021-11-09 10:33:11 by Eclipse SUMO polyconvert Version 1.10.0
<configuration xmlns:xsi="http://www.w3.org/2001/XMLSchema-instance" xsi:noNamespaceSchemaLocation="http://sumo.dlr.de/xsd/polyconvertConfiguration.xsd">

    <input>
        <net-file value="osm.net.xml"/>
        <osm-files value="osm_bbox.osm.xml"/>
        <osm.keep-full-type value="true"/>
        <type-file value="C:\Program%20Files%20(x86)\Eclipse\Sumo\data\typemap\osmPolyconvert.typ.xml"/>
    </input>

    <output>
        <output-file value="osm.poly.xml"/>
    </output>

    <processing>
        <poi-layer-offset value="5"/>
    </processing>

    <report>
        <verbose value="true"/>
    </report>

</configuration>
-->

<additional xmlns:xsi="http://www.w3.org/2001/XMLSchema-instance" xsi:noNamespaceSchemaLocation="http://sumo.dlr.de/xsd/additional_file.xsd">
    <location netOffset="-680690.82,-937447.03" convBoundary="0.00,-0.00,867.47,359.34" origBoundary="124.641436,8.477286,124.649303,8.480547" projParameter="+proj=utm +zone=51 +ellps=WGS84 +datum=WGS84 +units=m +no_defs"/>

    <poly id="187637901" type="building.yes" color="255,230,230" fill="1" layer="-1.00" shape="505.597173,97.343209 522.813858,85.515582 538.976957,124.836053 533.823963,127.369080 505.597173,97.343209"/>
    <poly id="187637921" type="building.yes" color="255,230,230" fill="1" layer="-1.00" shape="472.050266,163.881889 508.754004,155.322101 515.966336,163.127849 493.956639,173.099204 491.032573,166.738369 486.277625,168.885986 483.997306,163.921441 472.050266,163.881889"/>
    <poly id="376174704" type="amenity.school" color="237,199,199" fill="1" layer="-1.00" shape="500.266731,141.759748 533.823963,127.369080 505.229965,98.248574 479.104450,118.045913 486.983924,129.526403 500.266731,141.759748"/>
    <poly id="497381224" type="landuse.retail" color="194,194,130" fill="1" layer="-3.00" shape="503.291911,7.293898 411.527149,27.310969 236.302647,69.437944 184.398988,84.248941 126.371196,102.119839 137.522117,142.005077 158.209537,205.134518 172.706957,247.821051 188.095031,293.398021 212.382030,359.340929 367.582212,305.339325 456.638870,274.626835 464.382853,271.297399 471.279879,267.754236 595.327018,214.472986 547.547106,142.225531 527.968540,87.782605 503.291911,7.293898"/>
    <poly id="498532354" type="building.commercial" color="255,230,230" fill="1" layer="-1.00" shape="512.443394,77.209815 516.579808,85.909449 498.672848,99.525875 491.569533,86.776771 512.443394,77.209815"/>
    <poly id="498532355" type="building.commercial" color="255,230,230" fill="1" layer="-1.00" shape="660.638119,151.353882 670.858504,171.670239 636.121966,188.909287 636.518214,191.543251 617.693404,200.886569 614.133764,193.804126 611.567736,188.705640 606.337469,178.298111 660.638119,151.353882"/>
    <poly id="498532357" type="building.commercial" color="255,230,230" fill="1" layer="-1.00" shape="611.723227,196.182870 608.389871,198.060001 611.792129,203.305813 601.619357,208.118032 585.836282,180.478505 594.904389,176.502160 604.621106,193.553657 609.157198,191.084384 611.723227,196.182870"/>
    <poly id="498534323" type="building.yes" color="255,230,230" fill="1" layer="-1.00" shape="619.191898,122.742844 632.961796,147.343401 614.929907,156.656906 603.303184,130.406438 619.191898,122.742844"/>
    <poly id="498534325" type="building.yes" color="255,230,230" fill="1" layer="-1.00" shape="599.066729,132.323982 609.366929,157.197383 597.630624,161.991916 588.605588,140.220729 591.627917,138.983758 590.341691,135.892562 599.066729,132.323982"/>
    <poly id="539766677" type="building.commercial" color="255,230,230" fill="1" layer="-1.00" shape="550.748770,88.277295 560.627747,103.427139 561.542693,105.786800 560.261565,106.688291 548.947747,115.720615 538.401456,96.940263 550.748770,88.277295"/>
    <poly id="539766678" type="building.commercial" color="255,230,230" fill="1" layer="-1.00" shape="530.315911,149.684379 540.210476,166.349508 548.733651,161.043642 542.116252,150.563886 544.251929,150.683536 546.309260,153.700579 549.224429,151.766371 546.162564,146.743209 541.189314,145.837332 530.315911,149.684379"/>
    <poly id="539766679" type="building.commercial" color="255,230,230" fill="1" layer="-1.00" shape="535.931165,160.193066 527.602346,169.005782 543.847474,183.762321 546.313344,181.317449 540.766034,172.965750 542.523963,171.281018 535.931165,160.193066"/>
    <poly id="539767995" type="amenity.parking" color="184,184,179" fill="1" layer="-1.00" shape="610.413321,63.611962 624.827626,81.667714 632.451015,91.211648 635.517846,95.062476 636.109303,95.806005 567.618675,119.305767 560.382355,109.365327 564.743119,106.696224 562.556841,102.926554 610.413321,63.611962"/>
    <poly id="548714856" type="building.yes" color="255,230,230" fill="1" layer="-1.00" shape="578.478202,191.474150 559.119380,157.946614 541.767812,167.827089 561.115630,201.354569 578.478202,191.474150"/>
    <poly id="675067507" type="building.yes" color="255,230,230" fill="1" layer="-1.00" shape="582.507475,181.282836 595.116787,175.750979 588.212564,160.204510 575.603249,165.736370 582.507475,181.282836"/>
    <poly id="675067508" type="building.yes" color="255,230,230" fill="1" layer="-1.00" shape="572.781605,166.388011 568.742296,158.164359 572.626252,156.278499 576.676618,164.491138 572.781605,166.388011"/>
    <poly id="702989197" type="building.yes" color="255,230,230" fill="1" layer="-1.00" shape="562.379795,87.541325 568.298561,83.595864 563.724662,76.796691 557.794885,80.742106 562.379795,87.541325"/>
    <poly id="702989199" type="building.yes" color="255,230,230" fill="1" layer="-1.00" shape="576.541115,89.946066 582.323535,84.396326 576.063396,77.954986 570.280977,83.504726 576.541115,89.946066"/>
    <poly id="745127500" type="building.yes" color="255,230,230" fill="1" layer="-1.00" shape="539.835478,91.139833 555.827839,79.804729 549.298283,66.781544 536.152589,76.757271 533.529748,79.865080 534.668619,83.951051 539.835478,91.139833"/>
    <poly id="854122572" type="building.yes" color="255,230,230" fill="1" layer="-1.00" shape="500.266731,141.759748 486.983924,129.526403 479.104450,118.045913 505.229965,98.248574 533.823963,127.369080 500.266731,141.759748"/>
    <poi id="1448840617" type="shop.bicycle" color="237,199,255" layer="4.00" x="528.30" y="113.73"/>
    <poi id="4212344293" type="shop.bakery" color="237,199,255" layer="4.00" x="550.90" y="104.66"/>
    <poi id="4212344294" type="amenity.restaurant" color="237,199,199" layer="4.00" x="525.62" y="92.55"/>
</additional>
