<?xml version="1.0" encoding="UTF-8"?>

<!-- generated on 2021-11-09 10:33:11 by Eclipse SUMO duarouter Version 1.10.0
<configuration xmlns:xsi="http://www.w3.org/2001/XMLSchema-instance" xsi:noNamespaceSchemaLocation="http://sumo.dlr.de/xsd/duarouterConfiguration.xsd">

    <input>
        <net-file value="C:\Users\sulay\Sumo\2021-11-09-10-33-08\osm.net.xml"/>
        <route-files value="C:\Users\sulay\Sumo\2021-11-09-10-33-08\osm.passenger.trips.xml"/>
    </input>

    <output>
        <output-file value="C:\Users\sulay\Sumo\2021-11-09-10-33-08\osm.passenger.trips.xml.tmp"/>
        <write-trips value="true"/>
    </output>

    <time>
        <begin value="0"/>
        <end value="3600"/>
    </time>

    <report>
        <no-warnings value="true"/>
        <ignore-errors value="true"/>
        <no-step-log value="true"/>
    </report>

</configuration>
-->

<routes xmlns:xsi="http://www.w3.org/2001/XMLSchema-instance" xsi:noNamespaceSchemaLocation="http://sumo.dlr.de/xsd/routes_file.xsd">
<vType id="veh_passenger" vClass="passenger"/>




<trip id="veh0" type="veh_passenger" depart="0.0" departLane="best" from="785902529" to="732022517"/>
<trip id="veh1" type="veh_passenger" depart="37.5" departLane="best" from="785902529" to="732022517"/>
<trip id="veh2" type="veh_passenger" depart="75.0" departLane="best" from="785902529" to="785902540#2"/>
<trip id="veh3" type="veh_passenger" depart="112.5" departLane="best" from="785902529" to="785902540#2"/>
<trip id="veh4" type="veh_passenger" depart="150.0" departLane="best" from="785902529" to="785902540#2"/>
<trip id="veh5" type="veh_passenger" depart="187.5" departLane="best" from="785902529" to="785902540#2"/>
<trip id="veh6" type="veh_passenger" depart="225.0" departLane="best" from="785902529" to="785902540#2"/>
<trip id="veh7" type="veh_passenger" depart="262.5" departLane="best" from="785902529" to="732022517"/>
<trip id="veh8" type="veh_passenger" depart="300.0" departLane="best" from="785902529" to="785902540#2"/>
<trip id="veh9" type="veh_passenger" depart="337.5" departLane="best" from="785902529" to="785902540#2"/>
<trip id="veh10" type="veh_passenger" depart="375.0" departLane="best" from="785902529" to="785902540#2"/>
<trip id="veh11" type="veh_passenger" depart="412.5" departLane="best" from="785902529" to="732022517"/>
<trip id="veh12" type="veh_passenger" depart="450.0" departLane="best" from="785902529" to="732022517"/>
<trip id="veh13" type="veh_passenger" depart="487.5" departLane="best" from="785902529" to="785902540#2"/>
<trip id="veh14" type="veh_passenger" depart="525.0" departLane="best" from="785902529" to="785902540#2"/>
<trip id="veh15" type="veh_passenger" depart="562.5" departLane="best" from="785902529" to="732022517"/>
<trip id="veh16" type="veh_passenger" depart="600.0" departLane="best" from="785902529" to="732022517"/>
<trip id="veh17" type="veh_passenger" depart="637.5" departLane="best" from="785902529" to="732022517"/>
<trip id="veh18" type="veh_passenger" depart="675.0" departLane="best" from="785902529" to="732022517"/>
<trip id="veh19" type="veh_passenger" depart="712.5" departLane="best" from="785902529" to="732022517"/>
<trip id="veh20" type="veh_passenger" depart="750.0" departLane="best" from="785902529" to="732022517"/>
<trip id="veh21" type="veh_passenger" depart="787.5" departLane="best" from="785902529" to="732022517"/>
<trip id="veh22" type="veh_passenger" depart="825.0" departLane="best" from="785902529" to="732022517"/>
<trip id="veh23" type="veh_passenger" depart="862.5" departLane="best" from="785902529" to="732022517"/>
<trip id="veh24" type="veh_passenger" depart="900.0" departLane="best" from="785902529" to="732022517"/>
<trip id="veh25" type="veh_passenger" depart="915.7894897460938" departLane="best" from="785902529" to="785902540#2"/>
<trip id="veh26" type="veh_passenger" depart="931.5789794921875" departLane="best" from="785902529" to="785902540#2"/>
<trip id="veh27" type="veh_passenger" depart="947.3684692382812" departLane="best" from="785902529" to="732022517"/>
<trip id="veh28" type="veh_passenger" depart="963.157958984375" departLane="best" from="785902529" to="785902540#2"/>
<trip id="veh29" type="veh_passenger" depart="978.9474487304688" departLane="best" from="785902529" to="785902540#2"/>
<trip id="veh30" type="veh_passenger" depart="994.7369384765625" departLane="best" from="785902529" to="785902540#2"/>
<trip id="veh31" type="veh_passenger" depart="1010.5264282226562" departLane="best" from="785902529" to="732022517"/>
<trip id="veh32" type="veh_passenger" depart="1026.31591796875" departLane="best" from="785902529" to="785902540#2"/>
<trip id="veh33" type="veh_passenger" depart="1042.10546875" departLane="best" from="785902529" to="785902540#2"/>
<trip id="veh34" type="veh_passenger" depart="1057.8948974609375" departLane="best" from="785902529" to="732022517"/>
<trip id="veh35" type="veh_passenger" depart="1073.684326171875" departLane="best" from="785902529" to="785902540#2"/>
<trip id="veh36" type="veh_passenger" depart="1089.473876953125" departLane="best" from="785902529" to="785902540#2"/>
<trip id="veh37" type="veh_passenger" depart="1105.263427734375" departLane="best" from="785902529" to="785902540#2"/>
<trip id="veh38" type="veh_passenger" depart="1121.0528564453125" departLane="best" from="785902529" to="732022517"/>
<trip id="veh39" type="veh_passenger" depart="1136.84228515625" departLane="best" from="785902529" to="732022517"/>
<trip id="veh40" type="veh_passenger" depart="1152.6318359375" departLane="best" from="785902529" to="785902540#2"/>
<trip id="veh41" type="veh_passenger" depart="1168.42138671875" departLane="best" from="785902529" to="785902540#2"/>
<trip id="veh42" type="veh_passenger" depart="1184.2108154296875" departLane="best" from="785902529" to="732022517"/>
<trip id="veh43" type="veh_passenger" depart="1200.000244140625" departLane="best" from="785902529" to="785902540#2"/>
<trip id="veh44" type="veh_passenger" depart="1215.789794921875" departLane="best" from="785902529" to="785902540#2"/>
<trip id="veh45" type="veh_passenger" depart="1231.579345703125" departLane="best" from="785902529" to="785902540#2"/>
<trip id="veh46" type="veh_passenger" depart="1247.3687744140625" departLane="best" from="785902529" to="732022517"/>
<trip id="veh47" type="veh_passenger" depart="1263.158203125" departLane="best" from="785902529" to="732022517"/>
<trip id="veh48" type="veh_passenger" depart="1278.94775390625" departLane="best" from="785902529" to="785902540#2"/>
<trip id="veh49" type="veh_passenger" depart="1294.7373046875" departLane="best" from="785902529" to="732022517"/>
<trip id="veh50" type="veh_passenger" depart="1310.5267333984375" departLane="best" from="785902529" to="785902540#2"/>
<trip id="veh51" type="veh_passenger" depart="1326.316162109375" departLane="best" from="785902529" to="785902540#2"/>
<trip id="veh52" type="veh_passenger" depart="1342.105712890625" departLane="best" from="785902529" to="785902540#2"/>
<trip id="veh53" type="veh_passenger" depart="1357.895263671875" departLane="best" from="785902529" to="785902540#2"/>
<trip id="veh54" type="veh_passenger" depart="1373.6846923828125" departLane="best" from="785902529" to="732022517"/>
<trip id="veh55" type="veh_passenger" depart="1389.47412109375" departLane="best" from="785902529" to="732022517"/>
<trip id="veh56" type="veh_passenger" depart="1405.263671875" departLane="best" from="785902529" to="732022517"/>
<trip id="veh57" type="veh_passenger" depart="1421.05322265625" departLane="best" from="785902529" to="785902540#2"/>
<trip id="veh58" type="veh_passenger" depart="1436.8426513671875" departLane="best" from="785902529" to="785902540#2"/>
<trip id="veh59" type="veh_passenger" depart="1452.632080078125" departLane="best" from="785902529" to="785902540#2"/>
<trip id="veh60" type="veh_passenger" depart="1468.421630859375" departLane="best" from="785902529" to="732022517"/>
<trip id="veh61" type="veh_passenger" depart="1484.211181640625" departLane="best" from="785902529" to="732022517"/>
<trip id="veh62" type="veh_passenger" depart="1500.0006103515625" departLane="best" from="785902529" to="785902540#2"/>
<trip id="veh63" type="veh_passenger" depart="1515.7900390625" departLane="best" from="785902529" to="785902540#2"/>
<trip id="veh64" type="veh_passenger" depart="1531.57958984375" departLane="best" from="785902529" to="732022517"/>
<trip id="veh65" type="veh_passenger" depart="1547.369140625" departLane="best" from="785902529" to="785902540#2"/>
<trip id="veh66" type="veh_passenger" depart="1563.1585693359375" departLane="best" from="785902529" to="785902540#2"/>
<trip id="veh67" type="veh_passenger" depart="1578.947998046875" departLane="best" from="785902529" to="732022517"/>
<trip id="veh68" type="veh_passenger" depart="1594.737548828125" departLane="best" from="785902529" to="732022517"/>
<trip id="veh69" type="veh_passenger" depart="1610.527099609375" departLane="best" from="785902529" to="785902540#2"/>
<trip id="veh70" type="veh_passenger" depart="1626.3165283203125" departLane="best" from="785902529" to="732022517"/>
<trip id="veh71" type="veh_passenger" depart="1642.10595703125" departLane="best" from="785902529" to="785902540#2"/>
<trip id="veh72" type="veh_passenger" depart="1657.8955078125" departLane="best" from="785902529" to="732022517"/>
<trip id="veh73" type="veh_passenger" depart="1673.68505859375" departLane="best" from="785902529" to="785902540#2"/>
<trip id="veh74" type="veh_passenger" depart="1689.4744873046875" departLane="best" from="785902529" to="785902540#2"/>
<trip id="veh75" type="veh_passenger" depart="1705.263916015625" departLane="best" from="785902529" to="785902540#2"/>
<trip id="veh76" type="veh_passenger" depart="1721.053466796875" departLane="best" from="785902529" to="785902540#2"/>
<trip id="veh77" type="veh_passenger" depart="1736.843017578125" departLane="best" from="785902529" to="732022517"/>
<trip id="veh78" type="veh_passenger" depart="1752.6324462890625" departLane="best" from="785902529" to="732022517"/>
<trip id="veh79" type="veh_passenger" depart="1768.421875" departLane="best" from="785902529" to="785902540#2"/>
<trip id="veh80" type="veh_passenger" depart="1784.21142578125" departLane="best" from="785902529" to="732022517"/>
<trip id="veh81" type="veh_passenger" depart="1800.0" departLane="best" from="785902529" to="785902540#2"/>
<trip id="veh82" type="veh_passenger" depart="1812.162109375" departLane="best" from="785902529" to="785902540#2"/>
<trip id="veh83" type="veh_passenger" depart="1824.32421875" departLane="best" from="785902529" to="732022517"/>
<trip id="veh84" type="veh_passenger" depart="1836.486328125" departLane="best" from="785902529" to="785902540#2"/>
<trip id="veh85" type="veh_passenger" depart="1848.6484375" departLane="best" from="785902529" to="732022517"/>
<trip id="veh86" type="veh_passenger" depart="1860.810546875" departLane="best" from="785902529" to="785902540#2"/>
<trip id="veh87" type="veh_passenger" depart="1872.97265625" departLane="best" from="785902529" to="732022517"/>
<trip id="veh88" type="veh_passenger" depart="1885.134765625" departLane="best" from="785902529" to="785902540#2"/>
<trip id="veh89" type="veh_passenger" depart="1897.296875" departLane="best" from="785902529" to="785902540#2"/>
<trip id="veh90" type="veh_passenger" depart="1909.458984375" departLane="best" from="785902529" to="785902540#2"/>
<trip id="veh91" type="veh_passenger" depart="1921.62109375" departLane="best" from="785902529" to="785902540#2"/>
<trip id="veh92" type="veh_passenger" depart="1933.783203125" departLane="best" from="785902529" to="785902540#2"/>
<trip id="veh93" type="veh_passenger" depart="1945.9453125" departLane="best" from="785902529" to="785902540#2"/>
<trip id="veh94" type="veh_passenger" depart="1958.107421875" departLane="best" from="785902529" to="732022517"/>
<trip id="veh95" type="veh_passenger" depart="1970.26953125" departLane="best" from="785902529" to="732022517"/>
<trip id="veh96" type="veh_passenger" depart="1982.431640625" departLane="best" from="785902529" to="732022517"/>
<trip id="veh97" type="veh_passenger" depart="1994.59375" departLane="best" from="785902529" to="785902540#2"/>
<trip id="veh98" type="veh_passenger" depart="2006.755859375" departLane="best" from="785902529" to="785902540#2"/>
<trip id="veh99" type="veh_passenger" depart="2018.91796875" departLane="best" from="785902529" to="785902540#2"/>
<trip id="veh100" type="veh_passenger" depart="2031.080078125" departLane="best" from="785902529" to="785902540#2"/>
<trip id="veh101" type="veh_passenger" depart="2043.2421875" departLane="best" from="785902529" to="785902540#2"/>
<trip id="veh102" type="veh_passenger" depart="2055.404296875" departLane="best" from="785902529" to="785902540#2"/>
<trip id="veh103" type="veh_passenger" depart="2067.56640625" departLane="best" from="785902529" to="732022517"/>
<trip id="veh104" type="veh_passenger" depart="2079.728515625" departLane="best" from="785902529" to="785902540#2"/>
<trip id="veh105" type="veh_passenger" depart="2091.890625" departLane="best" from="785902529" to="785902540#2"/>
<trip id="veh106" type="veh_passenger" depart="2104.052734375" departLane="best" from="785902529" to="785902540#2"/>
<trip id="veh107" type="veh_passenger" depart="2116.21484375" departLane="best" from="785902529" to="732022517"/>
<trip id="veh108" type="veh_passenger" depart="2128.376953125" departLane="best" from="785902529" to="732022517"/>
<trip id="veh109" type="veh_passenger" depart="2140.5390625" departLane="best" from="785902529" to="732022517"/>
<trip id="veh110" type="veh_passenger" depart="2152.701171875" departLane="best" from="785902529" to="732022517"/>
<trip id="veh111" type="veh_passenger" depart="2164.86328125" departLane="best" from="785902529" to="732022517"/>
<trip id="veh112" type="veh_passenger" depart="2177.025390625" departLane="best" from="785902529" to="785902540#2"/>
<trip id="veh113" type="veh_passenger" depart="2189.1875" departLane="best" from="785902529" to="732022517"/>
<trip id="veh114" type="veh_passenger" depart="2201.349609375" departLane="best" from="785902529" to="732022517"/>
<trip id="veh115" type="veh_passenger" depart="2213.51171875" departLane="best" from="785902529" to="732022517"/>
<trip id="veh116" type="veh_passenger" depart="2225.673828125" departLane="best" from="785902529" to="785902540#2"/>
<trip id="veh117" type="veh_passenger" depart="2237.8359375" departLane="best" from="785902529" to="785902540#2"/>
<trip id="veh118" type="veh_passenger" depart="2249.998046875" departLane="best" from="785902529" to="785902540#2"/>
<trip id="veh119" type="veh_passenger" depart="2262.16015625" departLane="best" from="785902529" to="785902540#2"/>
<trip id="veh120" type="veh_passenger" depart="2274.322265625" departLane="best" from="785902529" to="785902540#2"/>
<trip id="veh121" type="veh_passenger" depart="2286.484375" departLane="best" from="785902529" to="785902540#2"/>
<trip id="veh122" type="veh_passenger" depart="2298.646484375" departLane="best" from="785902529" to="732022517"/>
<trip id="veh123" type="veh_passenger" depart="2310.80859375" departLane="best" from="785902529" to="785902540#2"/>
<trip id="veh124" type="veh_passenger" depart="2322.970703125" departLane="best" from="785902529" to="785902540#2"/>
<trip id="veh125" type="veh_passenger" depart="2335.1328125" departLane="best" from="785902529" to="732022517"/>
<trip id="veh126" type="veh_passenger" depart="2347.294921875" departLane="best" from="785902529" to="785902540#2"/>
<trip id="veh127" type="veh_passenger" depart="2359.45703125" departLane="best" from="785902529" to="732022517"/>
<trip id="veh128" type="veh_passenger" depart="2371.619140625" departLane="best" from="785902529" to="785902540#2"/>
<trip id="veh129" type="veh_passenger" depart="2383.78125" departLane="best" from="785902529" to="785902540#2"/>
<trip id="veh130" type="veh_passenger" depart="2395.943359375" departLane="best" from="785902529" to="785902540#2"/>
<trip id="veh131" type="veh_passenger" depart="2408.10546875" departLane="best" from="785902529" to="785902540#2"/>
<trip id="veh132" type="veh_passenger" depart="2420.267578125" departLane="best" from="785902529" to="785902540#2"/>
<trip id="veh133" type="veh_passenger" depart="2432.4296875" departLane="best" from="785902529" to="785902540#2"/>
<trip id="veh134" type="veh_passenger" depart="2444.591796875" departLane="best" from="785902529" to="785902540#2"/>
<trip id="veh135" type="veh_passenger" depart="2456.75390625" departLane="best" from="785902529" to="785902540#2"/>
<trip id="veh136" type="veh_passenger" depart="2468.916015625" departLane="best" from="785902529" to="785902540#2"/>
<trip id="veh137" type="veh_passenger" depart="2481.078125" departLane="best" from="785902529" to="785902540#2"/>
<trip id="veh138" type="veh_passenger" depart="2493.240234375" departLane="best" from="785902529" to="732022517"/>
<trip id="veh139" type="veh_passenger" depart="2505.40234375" departLane="best" from="785902529" to="785902540#2"/>
<trip id="veh140" type="veh_passenger" depart="2517.564453125" departLane="best" from="785902529" to="732022517"/>
<trip id="veh141" type="veh_passenger" depart="2529.7265625" departLane="best" from="785902529" to="732022517"/>
<trip id="veh142" type="veh_passenger" depart="2541.888671875" departLane="best" from="785902529" to="785902540#2"/>
<trip id="veh143" type="veh_passenger" depart="2554.05078125" departLane="best" from="785902529" to="785902540#2"/>
<trip id="veh144" type="veh_passenger" depart="2566.212890625" departLane="best" from="785902529" to="785902540#2"/>
<trip id="veh145" type="veh_passenger" depart="2578.375" departLane="best" from="785902529" to="785902540#2"/>
<trip id="veh146" type="veh_passenger" depart="2590.537109375" departLane="best" from="785902529" to="785902540#2"/>
<trip id="veh147" type="veh_passenger" depart="2602.69921875" departLane="best" from="785902529" to="785902540#2"/>
<trip id="veh148" type="veh_passenger" depart="2614.861328125" departLane="best" from="785902529" to="785902540#2"/>
<trip id="veh149" type="veh_passenger" depart="2627.0234375" departLane="best" from="785902529" to="785902540#2"/>
<trip id="veh150" type="veh_passenger" depart="2639.185546875" departLane="best" from="785902529" to="732022517"/>
<trip id="veh151" type="veh_passenger" depart="2651.34765625" departLane="best" from="785902529" to="785902540#2"/>
<trip id="veh152" type="veh_passenger" depart="2663.509765625" departLane="best" from="785902529" to="785902540#2"/>
<trip id="veh153" type="veh_passenger" depart="2675.671875" departLane="best" from="785902529" to="785902540#2"/>
<trip id="veh154" type="veh_passenger" depart="2687.833984375" departLane="best" from="785902529" to="732022517"/>
<trip id="veh155" type="veh_passenger" depart="2700.0" departLane="best" from="785902529" to="785902540#2"/>
<trip id="veh156" type="veh_passenger" depart="2725.0" departLane="best" from="785902529" to="732022517"/>
<trip id="veh157" type="veh_passenger" depart="2750.0" departLane="best" from="785902529" to="785902540#2"/>
<trip id="veh158" type="veh_passenger" depart="2775.0" departLane="best" from="785902529" to="785902540#2"/>
<trip id="veh159" type="veh_passenger" depart="2800.0" departLane="best" from="785902529" to="732022517"/>
<trip id="veh160" type="veh_passenger" depart="2825.0" departLane="best" from="785902529" to="732022517"/>
<trip id="veh161" type="veh_passenger" depart="2850.0" departLane="best" from="785902529" to="785902540#2"/>
<trip id="veh162" type="veh_passenger" depart="2875.0" departLane="best" from="785902529" to="785902540#2"/>
<trip id="veh163" type="veh_passenger" depart="2900.0" departLane="best" from="785902529" to="732022517"/>
<trip id="veh164" type="veh_passenger" depart="2925.0" departLane="best" from="785902529" to="785902540#2"/>
<trip id="veh165" type="veh_passenger" depart="2950.0" departLane="best" from="785902529" to="732022517"/>
<trip id="veh166" type="veh_passenger" depart="2975.0" departLane="best" from="785902529" to="785902540#2"/>
<trip id="veh167" type="veh_passenger" depart="3000.0" departLane="best" from="785902529" to="785902540#2"/>
<trip id="veh168" type="veh_passenger" depart="3025.0" departLane="best" from="785902529" to="785902540#2"/>
<trip id="veh169" type="veh_passenger" depart="3050.0" departLane="best" from="785902529" to="785902540#2"/>
<trip id="veh170" type="veh_passenger" depart="3075.0" departLane="best" from="785902529" to="785902540#2"/>
<trip id="veh171" type="veh_passenger" depart="3100.0" departLane="best" from="785902529" to="785902540#2"/>
<trip id="veh172" type="veh_passenger" depart="3125.0" departLane="best" from="785902529" to="785902540#2"/>
<trip id="veh173" type="veh_passenger" depart="3150.0" departLane="best" from="785902529" to="785902540#2"/>
<trip id="veh174" type="veh_passenger" depart="3175.0" departLane="best" from="785902529" to="785902540#2"/>
<trip id="veh175" type="veh_passenger" depart="3200.0" departLane="best" from="785902529" to="732022517"/>
<trip id="veh176" type="veh_passenger" depart="3225.0" departLane="best" from="785902529" to="785902540#2"/>
<trip id="veh177" type="veh_passenger" depart="3250.0" departLane="best" from="785902529" to="785902540#2"/>
<trip id="veh178" type="veh_passenger" depart="3275.0" departLane="best" from="785902529" to="785902540#2"/>
<trip id="veh179" type="veh_passenger" depart="3300.0" departLane="best" from="785902529" to="732022517"/>
<trip id="veh180" type="veh_passenger" depart="3325.0" departLane="best" from="785902529" to="785902540#2"/>
<trip id="veh181" type="veh_passenger" depart="3350.0" departLane="best" from="785902529" to="732022517"/>
<trip id="veh182" type="veh_passenger" depart="3375.0" departLane="best" from="785902529" to="732022517"/>
<trip id="veh183" type="veh_passenger" depart="3400.0" departLane="best" from="785902529" to="732022517"/>
<trip id="veh184" type="veh_passenger" depart="3425.0" departLane="best" from="785902529" to="732022517"/>
<trip id="veh185" type="veh_passenger" depart="3450.0" departLane="best" from="785902529" to="785902540#2"/>
<trip id="veh186" type="veh_passenger" depart="3475.0" departLane="best" from="785902529" to="732022517"/>
<trip id="veh187" type="veh_passenger" depart="3500.0" departLane="best" from="785902529" to="732022517"/>
<trip id="veh188" type="veh_passenger" depart="3525.0" departLane="best" from="785902529" to="732022517"/>
<trip id="veh189" type="veh_passenger" depart="3550.0" departLane="best" from="785902529" to="732022517"/>
<trip id="veh190" type="veh_passenger" depart="3575.0" departLane="best" from="785902529" to="732022517"/>
<trip id="veh191" type="veh_passenger" depart="3600.0" departLane="best" from="785902529" to="732022517"/>
<trip id="veh192" type="veh_passenger" depart="3616.666748046875" departLane="best" from="785902529" to="785902540#2"/>
<trip id="veh193" type="veh_passenger" depart="3633.33349609375" departLane="best" from="785902529" to="732022517"/>
<trip id="veh194" type="veh_passenger" depart="3650.000244140625" departLane="best" from="785902529" to="785902540#2"/>
<trip id="veh195" type="veh_passenger" depart="3666.6669921875" departLane="best" from="785902529" to="732022517"/>
<trip id="veh196" type="veh_passenger" depart="3683.333740234375" departLane="best" from="785902529" to="732022517"/>
<trip id="veh197" type="veh_passenger" depart="3700.00048828125" departLane="best" from="785902529" to="785902540#2"/>
<trip id="veh198" type="veh_passenger" depart="3716.667236328125" departLane="best" from="785902529" to="732022517"/>
<trip id="veh199" type="veh_passenger" depart="3733.333984375" departLane="best" from="785902529" to="732022517"/>
<trip id="veh200" type="veh_passenger" depart="3750.000732421875" departLane="best" from="785902529" to="785902540#2"/>
<trip id="veh201" type="veh_passenger" depart="3766.66748046875" departLane="best" from="785902529" to="785902540#2"/>
<trip id="veh202" type="veh_passenger" depart="3783.334228515625" departLane="best" from="785902529" to="785902540#2"/>
<trip id="veh203" type="veh_passenger" depart="3800.0009765625" departLane="best" from="785902529" to="732022517"/>
<trip id="veh204" type="veh_passenger" depart="3816.667724609375" departLane="best" from="785902529" to="785902540#2"/>
<trip id="veh205" type="veh_passenger" depart="3833.33447265625" departLane="best" from="785902529" to="732022517"/>
<trip id="veh206" type="veh_passenger" depart="3850.001220703125" departLane="best" from="785902529" to="785902540#2"/>
<trip id="veh207" type="veh_passenger" depart="3866.66796875" departLane="best" from="785902529" to="785902540#2"/>
<trip id="veh208" type="veh_passenger" depart="3883.334716796875" departLane="best" from="785902529" to="785902540#2"/>
<trip id="veh209" type="veh_passenger" depart="3900.00146484375" departLane="best" from="785902529" to="785902540#2"/>
<trip id="veh210" type="veh_passenger" depart="3916.668212890625" departLane="best" from="785902529" to="785902540#2"/>
<trip id="veh211" type="veh_passenger" depart="3933.3349609375" departLane="best" from="785902529" to="785902540#2"/>
<trip id="veh212" type="veh_passenger" depart="3950.001708984375" departLane="best" from="785902529" to="785902540#2"/>
<trip id="veh213" type="veh_passenger" depart="3966.66845703125" departLane="best" from="785902529" to="732022517"/>
<trip id="veh214" type="veh_passenger" depart="3983.335205078125" departLane="best" from="785902529" to="732022517"/>
<trip id="veh215" type="veh_passenger" depart="4000.001953125" departLane="best" from="785902529" to="785902540#2"/>
<trip id="veh216" type="veh_passenger" depart="4016.668701171875" departLane="best" from="785902529" to="785902540#2"/>
<trip id="veh217" type="veh_passenger" depart="4033.33544921875" departLane="best" from="785902529" to="785902540#2"/>
<trip id="veh218" type="veh_passenger" depart="4050.002197265625" departLane="best" from="785902529" to="785902540#2"/>
<trip id="veh219" type="veh_passenger" depart="4066.6689453125" departLane="best" from="785902529" to="732022517"/>
<trip id="veh220" type="veh_passenger" depart="4083.335693359375" departLane="best" from="785902529" to="732022517"/>
<trip id="veh221" type="veh_passenger" depart="4100.00244140625" departLane="best" from="785902529" to="785902540#2"/>
<trip id="veh222" type="veh_passenger" depart="4116.6689453125" departLane="best" from="785902529" to="732022517"/>
<trip id="veh223" type="veh_passenger" depart="4133.3359375" departLane="best" from="785902529" to="785902540#2"/>
<trip id="veh224" type="veh_passenger" depart="4150.0029296875" departLane="best" from="785902529" to="732022517"/>
<trip id="veh225" type="veh_passenger" depart="4166.66943359375" departLane="best" from="785902529" to="732022517"/>
<trip id="veh226" type="veh_passenger" depart="4183.3359375" departLane="best" from="785902529" to="785902540#2"/>
<trip id="veh227" type="veh_passenger" depart="4200.0029296875" departLane="best" from="785902529" to="732022517"/>
<trip id="veh228" type="veh_passenger" depart="4216.669921875" departLane="best" from="785902529" to="785902540#2"/>
<trip id="veh229" type="veh_passenger" depart="4233.33642578125" departLane="best" from="785902529" to="785902540#2"/>
<trip id="veh230" type="veh_passenger" depart="4250.0029296875" departLane="best" from="785902529" to="785902540#2"/>
<trip id="veh231" type="veh_passenger" depart="4266.669921875" departLane="best" from="785902529" to="732022517"/>
<trip id="veh232" type="veh_passenger" depart="4283.3369140625" departLane="best" from="785902529" to="732022517"/>
<trip id="veh233" type="veh_passenger" depart="4300.00341796875" departLane="best" from="785902529" to="732022517"/>
<trip id="veh234" type="veh_passenger" depart="4316.669921875" departLane="best" from="785902529" to="785902540#2"/>
<trip id="veh235" type="veh_passenger" depart="4333.3369140625" departLane="best" from="785902529" to="785902540#2"/>
<trip id="veh236" type="veh_passenger" depart="4350.00390625" departLane="best" from="785902529" to="785902540#2"/>
<trip id="veh237" type="veh_passenger" depart="4366.67041015625" departLane="best" from="785902529" to="732022517"/>
<trip id="veh238" type="veh_passenger" depart="4383.3369140625" departLane="best" from="785902529" to="732022517"/>
<trip id="veh239" type="veh_passenger" depart="4400.00390625" departLane="best" from="785902529" to="785902540#2"/>
<trip id="veh240" type="veh_passenger" depart="4416.6708984375" departLane="best" from="785902529" to="785902540#2"/>
<trip id="veh241" type="veh_passenger" depart="4433.33740234375" departLane="best" from="785902529" to="732022517"/>
<trip id="veh242" type="veh_passenger" depart="4450.00390625" departLane="best" from="785902529" to="785902540#2"/>
<trip id="veh243" type="veh_passenger" depart="4466.6708984375" departLane="best" from="785902529" to="785902540#2"/>
<trip id="veh244" type="veh_passenger" depart="4483.337890625" departLane="best" from="785902529" to="785902540#2"/>
<trip id="veh245" type="veh_passenger" depart="4500.0" departLane="best" from="785902529" to="785902540#2"/>
<trip id="veh246" type="veh_passenger" depart="4511.25" departLane="best" from="785902529" to="785902540#2"/>
<trip id="veh247" type="veh_passenger" depart="4522.5" departLane="best" from="785902529" to="785902540#2"/>
<trip id="veh248" type="veh_passenger" depart="4533.75" departLane="best" from="785902529" to="785902540#2"/>
<trip id="veh249" type="veh_passenger" depart="4545.0" departLane="best" from="785902529" to="732022517"/>
<trip id="veh250" type="veh_passenger" depart="4556.25" departLane="best" from="785902529" to="732022517"/>
<trip id="veh251" type="veh_passenger" depart="4567.5" departLane="best" from="785902529" to="732022517"/>
<trip id="veh252" type="veh_passenger" depart="4578.75" departLane="best" from="785902529" to="785902540#2"/>