<additional>
  <!--Area Detectors-->
  <laneAreaDetector id="N_0" lane="785902529_0" pos="-71" endPos="-1" friendlyPos="False" freq="900" file="Output\\E2_out.xml"/>
  <laneAreaDetector id="N_1" lane="785902529_1" pos="-71" endPos="-1" friendlyPos="False" freq="900" file="Output\\E2_out.xml"/>
  <laneAreaDetector id="W_0" lane="785902540#0_0" pos="-71" endPos="-1" friendlyPos="False" freq="900" file="Output\\E2_out.xml"/>
  <laneAreaDetector id="W_1" lane="785902540#0_1" pos="-71" endPos="-1" friendlyPos="False" freq="900" file="Output\\E2_out.xml"/>
  <laneAreaDetector id="S_0" lane="-732022517_0" pos="-71" endPos="-1" friendlyPos="False" freq="900" file="Output\\E2_out.xml"/>
  <laneAreaDetector id="S_1" lane="-732022517_1" pos="-71" endPos="-1" friendlyPos="False" freq="900" file="Output\\E2_out.xml"/>
  <laneAreaDetector id="E_0" lane="-785902540#2_0" pos="-71" endPos="-1" friendlyPos="False" freq="900" file="Output\\E2_out.xml"/>
  <laneAreaDetector id="E_1" lane="-785902540#2_1" pos="-71" endPos="-1" friendlyPos="False" freq="900" file="Output\\E2_out.xml"/>
  
  <!--Approach Detectors-->
  <inductionLoop id="aN_0" lane="785902529_0" pos="-30" freq="900" file="Output\\E1a_out.xml"/>
  <inductionLoop id="aN_1" lane="785902529_1" pos="-30" freq="900" file="Output\\E1a_out.xml"/>
  <inductionLoop id="aW_0" lane="785902540#0_0" pos="-30" freq="900" file="Output\\E1a_out.xml"/>
  <inductionLoop id="aW_1" lane="785902540#0_1" pos="-30" freq="900" file="Output\\E1a_out.xml"/>
  <inductionLoop id="aS_0" lane="-732022517_0" pos="-30" freq="900" file="Output\\E1a_out.xml"/>
  <inductionLoop id="aS_1" lane="-732022517_1" pos="-30" freq="900" file="Output\\E1a_out.xml"/>
  <inductionLoop id="aE_0" lane="-785902540#2_0" pos="-30" freq="900" file="Output\\E1a_out.xml"/>
  <inductionLoop id="aE_1" lane="-785902540#2_1" pos="-30" freq="900" file="Output\\E1a_out.xml"/>
  
  <!--Exit Detectors-->
  <inductionLoop id="eN_0" lane="-785902529_0" pos="30" freq="900" file="Output\\E1e_out.xml"/>
  <inductionLoop id="eN_1" lane="-785902529_1" pos="30" freq="900" file="Output\\E1e_out.xml"/>
  <inductionLoop id="eW_0" lane="-785902540#1_0" pos="30" freq="900" file="Output\\E1e_out.xml"/>
  <inductionLoop id="eW_1" lane="-785902540#1_1" pos="70" freq="900" file="Output\\E1e_out.xml"/>
  <inductionLoop id="eS_0" lane="732022517_0" pos="30" freq="900" file="Output\\E1e_out.xml"/>
  <inductionLoop id="eS_1" lane="732022517_1" pos="30" freq="900" file="Output\\E1e_out.xml"/>
  <inductionLoop id="eE_0" lane="785902540#2_0" pos="30" freq="900" file="Output\\E1e_out.xml"/>
  <inductionLoop id="eE_1" lane="785902540#2_1" pos="30" freq="900" file="Output\\E1e_out.xml"/>
</additional>

<!--reference_dict = {
    "North_a" : "785902529",
    "North_f" : "-785902529",
    "West_a" : "785902540#0",
    "West_f" : "-785902540#1",
    "South_a" : "-732022517",
    "South_f" : "732022517",
    "East_a" : "-785902540#2",
    "East_f" : "785902540#2"}-->