<?xml version="1.0" encoding="UTF-8"?>

<routes xmlns:xsi="http://www.w3.org/2001/XMLSchema-instance" xsi:noNamespaceSchemaLocation="http://sumo.dlr.de/xsd/routes_file.xsd">
<vType id="veh_passenger" vClass="passenger"/>




<trip id="veh0" type="veh_passenger" depart="0.0" departLane="best" from="785902529" to="732022517"/>
<trip id="veh10969" type="veh_passenger" depart="0.0" departLane="best" from="785902540#0" to="785902540#2"/>
<trip id="veh10970" type="veh_passenger" depart="19.565217971801758" departLane="best" from="785902540#0" to="732022517"/>
<trip id="veh1" type="veh_passenger" depart="23.6842098236084" departLane="best" from="785902529" to="-785902540#1"/>
<trip id="veh10971" type="veh_passenger" depart="39.130435943603516" departLane="best" from="785902540#0" to="732022517"/>
<trip id="veh2" type="veh_passenger" depart="47.3684196472168" departLane="best" from="785902529" to="-785902540#1"/>
<trip id="veh10972" type="veh_passenger" depart="58.695655822753906" departLane="best" from="785902540#0" to="785902540#2"/>
<trip id="veh3" type="veh_passenger" depart="71.05262756347656" departLane="best" from="785902529" to="-785902540#1"/>
<trip id="veh10973" type="veh_passenger" depart="78.26087188720703" departLane="best" from="785902540#0" to="785902540#2"/>
<trip id="veh4" type="veh_passenger" depart="94.7368392944336" departLane="best" from="785902529" to="732022517"/>
<trip id="veh10974" type="veh_passenger" depart="97.82608795166016" departLane="best" from="785902540#0" to="732022517"/>
<trip id="veh10975" type="veh_passenger" depart="117.39131164550781" departLane="best" from="785902540#0" to="785902540#2"/>
<trip id="veh5" type="veh_passenger" depart="118.42105102539062" departLane="best" from="785902529" to="732022517"/>
<trip id="veh10976" type="veh_passenger" depart="136.95652770996094" departLane="best" from="785902540#0" to="785902540#2"/>
<trip id="veh6" type="veh_passenger" depart="142.10525512695312" departLane="best" from="785902529" to="732022517"/>
<trip id="veh10977" type="veh_passenger" depart="156.52174377441406" departLane="best" from="785902540#0" to="785902540#2"/>
<trip id="veh7" type="veh_passenger" depart="165.7894744873047" departLane="best" from="785902529" to="732022517"/>
<trip id="veh10978" type="veh_passenger" depart="176.0869598388672" departLane="best" from="785902540#0" to="785902540#2"/>
<trip id="veh8" type="veh_passenger" depart="189.4736785888672" departLane="best" from="785902529" to="-785902540#1"/>
<trip id="veh10979" type="veh_passenger" depart="195.6521759033203" departLane="best" from="785902540#0" to="785902540#2"/>
<trip id="veh9" type="veh_passenger" depart="213.1578826904297" departLane="best" from="785902529" to="-785902540#1"/>
<trip id="veh10980" type="veh_passenger" depart="215.21739196777344" departLane="best" from="785902540#0" to="732022517"/>
<trip id="veh10981" type="veh_passenger" depart="234.78262329101562" departLane="best" from="785902540#0" to="785902540#2"/>
<trip id="veh10" type="veh_passenger" depart="236.84210205078125" departLane="best" from="785902529" to="-785902540#1"/>
<trip id="veh10982" type="veh_passenger" depart="254.34783935546875" departLane="best" from="785902540#0" to="785902540#2"/>
<trip id="veh11" type="veh_passenger" depart="260.52630615234375" departLane="best" from="785902529" to="732022517"/>
<trip id="veh10983" type="veh_passenger" depart="273.9130554199219" departLane="best" from="785902540#0" to="785902540#2"/>
<trip id="veh12" type="veh_passenger" depart="284.21051025390625" departLane="best" from="785902529" to="-785902540#1"/>
<trip id="veh10984" type="veh_passenger" depart="293.478271484375" departLane="best" from="785902540#0" to="732022517"/>
<trip id="veh13" type="veh_passenger" depart="307.89471435546875" departLane="best" from="785902529" to="732022517"/>
<trip id="veh10985" type="veh_passenger" depart="313.0434875488281" departLane="best" from="785902540#0" to="732022517"/>
<trip id="veh14" type="veh_passenger" depart="331.5789489746094" departLane="best" from="785902529" to="732022517"/>
<trip id="veh10986" type="veh_passenger" depart="332.60870361328125" departLane="best" from="785902540#0" to="785902540#2"/>
<trip id="veh10987" type="veh_passenger" depart="352.1739196777344" departLane="best" from="785902540#0" to="732022517"/>
<trip id="veh15" type="veh_passenger" depart="355.2631530761719" departLane="best" from="785902529" to="-785902540#1"/>
<trip id="veh10988" type="veh_passenger" depart="371.7391357421875" departLane="best" from="785902540#0" to="785902540#2"/>
<trip id="veh16" type="veh_passenger" depart="378.9473571777344" departLane="best" from="785902529" to="-785902540#1"/>
<trip id="veh10989" type="veh_passenger" depart="391.3043518066406" departLane="best" from="785902540#0" to="785902540#2"/>
<trip id="veh17" type="veh_passenger" depart="402.6315612792969" departLane="best" from="785902529" to="-785902540#1"/>
<trip id="veh10990" type="veh_passenger" depart="410.86956787109375" departLane="best" from="785902540#0" to="785902540#2"/>
<trip id="veh18" type="veh_passenger" depart="426.3157653808594" departLane="best" from="785902529" to="-785902540#1"/>
<trip id="veh10991" type="veh_passenger" depart="430.4347839355469" departLane="best" from="785902540#0" to="785902540#2"/>
<trip id="veh19" type="veh_passenger" depart="450.0" departLane="best" from="785902529" to="-785902540#1"/>
<trip id="veh10992" type="veh_passenger" depart="450.0" departLane="best" from="785902540#0" to="785902540#2"/>
<trip id="veh10993" type="veh_passenger" depart="469.56524658203125" departLane="best" from="785902540#0" to="785902540#2"/>
<trip id="veh20" type="veh_passenger" depart="473.6842041015625" departLane="best" from="785902529" to="-785902540#1"/>
<trip id="veh10994" type="veh_passenger" depart="489.1304626464844" departLane="best" from="785902540#0" to="785902540#2"/>
<trip id="veh21" type="veh_passenger" depart="497.368408203125" departLane="best" from="785902529" to="-785902540#1"/>
<trip id="veh10995" type="veh_passenger" depart="508.6956787109375" departLane="best" from="785902540#0" to="785902540#2"/>
<trip id="veh22" type="veh_passenger" depart="521.0526123046875" departLane="best" from="785902529" to="732022517"/>
<trip id="veh10996" type="veh_passenger" depart="528.2608642578125" departLane="best" from="785902540#0" to="785902540#2"/>
<trip id="veh23" type="veh_passenger" depart="544.73681640625" departLane="best" from="785902529" to="-785902540#1"/>
<trip id="veh10997" type="veh_passenger" depart="547.8261108398438" departLane="best" from="785902540#0" to="785902540#2"/>
<trip id="veh10998" type="veh_passenger" depart="567.3912963867188" departLane="best" from="785902540#0" to="732022517"/>
<trip id="veh24" type="veh_passenger" depart="568.4210205078125" departLane="best" from="785902529" to="-785902540#1"/>
<trip id="veh10999" type="veh_passenger" depart="586.95654296875" departLane="best" from="785902540#0" to="732022517"/>
<trip id="veh25" type="veh_passenger" depart="592.105224609375" departLane="best" from="785902529" to="732022517"/>
<trip id="veh11000" type="veh_passenger" depart="606.521728515625" departLane="best" from="785902540#0" to="732022517"/>
<trip id="veh26" type="veh_passenger" depart="615.7894287109375" departLane="best" from="785902529" to="-785902540#1"/>
<trip id="veh11001" type="veh_passenger" depart="626.0869750976562" departLane="best" from="785902540#0" to="785902540#2"/>
<trip id="veh27" type="veh_passenger" depart="639.4736938476562" departLane="best" from="785902529" to="732022517"/>
<trip id="veh11002" type="veh_passenger" depart="645.6522216796875" departLane="best" from="785902540#0" to="732022517"/>
<trip id="veh28" type="veh_passenger" depart="663.1578979492188" departLane="best" from="785902529" to="-785902540#1"/>
<trip id="veh11003" type="veh_passenger" depart="665.2174072265625" departLane="best" from="785902540#0" to="732022517"/>
<trip id="veh11004" type="veh_passenger" depart="684.7826538085938" departLane="best" from="785902540#0" to="785902540#2"/>
<trip id="veh29" type="veh_passenger" depart="686.8421020507812" departLane="best" from="785902529" to="-785902540#1"/>
<trip id="veh11005" type="veh_passenger" depart="704.3478393554688" departLane="best" from="785902540#0" to="732022517"/>
<trip id="veh30" type="veh_passenger" depart="710.5263061523438" departLane="best" from="785902529" to="-785902540#1"/>
<trip id="veh11006" type="veh_passenger" depart="723.9130859375" departLane="best" from="785902540#0" to="732022517"/>
<trip id="veh31" type="veh_passenger" depart="734.2105102539062" departLane="best" from="785902529" to="-785902540#1"/>
<trip id="veh11007" type="veh_passenger" depart="743.478271484375" departLane="best" from="785902540#0" to="732022517"/>
<trip id="veh32" type="veh_passenger" depart="757.8947143554688" departLane="best" from="785902529" to="732022517"/>
<trip id="veh11008" type="veh_passenger" depart="763.0435180664062" departLane="best" from="785902540#0" to="785902540#2"/>
<trip id="veh33" type="veh_passenger" depart="781.5789184570312" departLane="best" from="785902529" to="732022517"/>
<trip id="veh11009" type="veh_passenger" depart="782.6087036132812" departLane="best" from="785902540#0" to="732022517"/>
<trip id="veh11010" type="veh_passenger" depart="802.1739501953125" departLane="best" from="785902540#0" to="732022517"/>
<trip id="veh34" type="veh_passenger" depart="805.2631225585938" departLane="best" from="785902529" to="732022517"/>
<trip id="veh11011" type="veh_passenger" depart="821.7391357421875" departLane="best" from="785902540#0" to="732022517"/>
<trip id="veh35" type="veh_passenger" depart="828.9473266601562" departLane="best" from="785902529" to="-785902540#1"/>
<trip id="veh11012" type="veh_passenger" depart="841.3043823242188" departLane="best" from="785902540#0" to="785902540#2"/>
<trip id="veh36" type="veh_passenger" depart="852.6315307617188" departLane="best" from="785902529" to="-785902540#1"/>
<trip id="veh11013" type="veh_passenger" depart="860.8695678710938" departLane="best" from="785902540#0" to="732022517"/>
<trip id="veh37" type="veh_passenger" depart="876.3157348632812" departLane="best" from="785902529" to="732022517"/>
<trip id="veh11014" type="veh_passenger" depart="880.434814453125" departLane="best" from="785902540#0" to="785902540#2"/>
<trip id="veh38" type="veh_passenger" depart="900.0" departLane="best" from="785902529" to="-785902540#1"/>
<trip id="veh3821" type="veh_passenger" depart="900.0" departLane="best" from="-732022517" to="-785902529"/>
<trip id="veh7331" type="veh_passenger" depart="900.0" departLane="best" from="-785902540#2" to="-785902540#1"/>
<trip id="veh11015" type="veh_passenger" depart="900.0" departLane="best" from="785902540#0" to="785902540#2"/>
<trip id="veh7332" type="veh_passenger" depart="913.8461303710938" departLane="best" from="-785902540#2" to="-785902540#1"/>
<trip id="veh11016" type="veh_passenger" depart="918.3673706054688" departLane="best" from="785902540#0" to="785902540#2"/>
<trip id="veh7333" type="veh_passenger" depart="927.6922607421875" departLane="best" from="-785902540#2" to="-785902540#1"/>
<trip id="veh39" type="veh_passenger" depart="936.0" departLane="best" from="785902529" to="732022517"/>
<trip id="veh11017" type="veh_passenger" depart="936.7347412109375" departLane="best" from="785902540#0" to="732022517"/>
<trip id="veh7334" type="veh_passenger" depart="941.5383911132812" departLane="best" from="-785902540#2" to="-785902540#1"/>
<trip id="veh3822" type="veh_passenger" depart="942.8571166992188" departLane="best" from="-732022517" to="-785902529"/>
<trip id="veh11018" type="veh_passenger" depart="955.1021118164062" departLane="best" from="785902540#0" to="785902540#2"/>
<trip id="veh7335" type="veh_passenger" depart="955.384521484375" departLane="best" from="-785902540#2" to="-785902529"/>
<trip id="veh7336" type="veh_passenger" depart="969.2306518554688" departLane="best" from="-785902540#2" to="-785902529"/>
<trip id="veh40" type="veh_passenger" depart="972.0" departLane="best" from="785902529" to="-785902540#1"/>
<trip id="veh11019" type="veh_passenger" depart="973.469482421875" departLane="best" from="785902540#0" to="785902540#2"/>
<trip id="veh7337" type="veh_passenger" depart="983.0767822265625" departLane="best" from="-785902540#2" to="-785902529"/>
<trip id="veh3823" type="veh_passenger" depart="985.7142333984375" departLane="best" from="-732022517" to="-785902529"/>
<trip id="veh11020" type="veh_passenger" depart="991.8368530273438" departLane="best" from="785902540#0" to="785902540#2"/>
<trip id="veh7338" type="veh_passenger" depart="996.9229125976562" departLane="best" from="-785902540#2" to="-785902540#1"/>
<trip id="veh41" type="veh_passenger" depart="1008.0" departLane="best" from="785902529" to="732022517"/>
<trip id="veh11021" type="veh_passenger" depart="1010.2042236328125" departLane="best" from="785902540#0" to="732022517"/>
<trip id="veh7339" type="veh_passenger" depart="1010.76904296875" departLane="best" from="-785902540#2" to="-785902540#1"/>
<trip id="veh7340" type="veh_passenger" depart="1024.615234375" departLane="best" from="-785902540#2" to="-785902529"/>
<trip id="veh3824" type="veh_passenger" depart="1028.5712890625" departLane="best" from="-732022517" to="785902540#2"/>
<trip id="veh11022" type="veh_passenger" depart="1028.571533203125" departLane="best" from="785902540#0" to="732022517"/>
<trip id="veh7341" type="veh_passenger" depart="1038.4613037109375" departLane="best" from="-785902540#2" to="-785902540#1"/>
<trip id="veh42" type="veh_passenger" depart="1044.0" departLane="best" from="785902529" to="-785902540#1"/>
<trip id="veh11023" type="veh_passenger" depart="1046.93896484375" departLane="best" from="785902540#0" to="732022517"/>
<trip id="veh7342" type="veh_passenger" depart="1052.307373046875" departLane="best" from="-785902540#2" to="-785902529"/>
<trip id="veh11024" type="veh_passenger" depart="1065.306396484375" departLane="best" from="785902540#0" to="785902540#2"/>
<trip id="veh7343" type="veh_passenger" depart="1066.153564453125" departLane="best" from="-785902540#2" to="-785902540#1"/>
<trip id="veh3825" type="veh_passenger" depart="1071.428466796875" departLane="best" from="-732022517" to="785902540#2"/>
<trip id="veh7344" type="veh_passenger" depart="1079.999755859375" departLane="best" from="-785902540#2" to="-785902540#1"/>
<trip id="veh43" type="veh_passenger" depart="1080.0" departLane="best" from="785902529" to="732022517"/>
<trip id="veh11025" type="veh_passenger" depart="1083.6737060546875" departLane="best" from="785902540#0" to="785902540#2"/>
<trip id="veh7345" type="veh_passenger" depart="1093.8458251953125" departLane="best" from="-785902540#2" to="-785902529"/>
<trip id="veh11026" type="veh_passenger" depart="1102.041015625" departLane="best" from="785902540#0" to="785902540#2"/>
<trip id="veh7346" type="veh_passenger" depart="1107.69189453125" departLane="best" from="-785902540#2" to="-785902529"/>
<trip id="veh3826" type="veh_passenger" depart="1114.28564453125" departLane="best" from="-732022517" to="-785902529"/>
<trip id="veh44" type="veh_passenger" depart="1116.0" departLane="best" from="785902529" to="732022517"/>
<trip id="veh11027" type="veh_passenger" depart="1120.408447265625" departLane="best" from="785902540#0" to="785902540#2"/>
<trip id="veh7347" type="veh_passenger" depart="1121.5380859375" departLane="best" from="-785902540#2" to="-785902540#1"/>
<trip id="veh7348" type="veh_passenger" depart="1135.38427734375" departLane="best" from="-785902540#2" to="-785902540#1"/>
<trip id="veh11028" type="veh_passenger" depart="1138.77587890625" departLane="best" from="785902540#0" to="785902540#2"/>
<trip id="veh7349" type="veh_passenger" depart="1149.2303466796875" departLane="best" from="-785902540#2" to="-785902540#1"/>
<trip id="veh45" type="veh_passenger" depart="1152.0" departLane="best" from="785902529" to="732022517"/>
<trip id="veh3827" type="veh_passenger" depart="1157.1427001953125" departLane="best" from="-732022517" to="785902540#2"/>
<trip id="veh11029" type="veh_passenger" depart="1157.1431884765625" departLane="best" from="785902540#0" to="732022517"/>
<trip id="veh7350" type="veh_passenger" depart="1163.076416015625" departLane="best" from="-785902540#2" to="-785902540#1"/>
<trip id="veh11030" type="veh_passenger" depart="1175.510498046875" departLane="best" from="785902540#0" to="732022517"/>
<trip id="veh7351" type="veh_passenger" depart="1176.922607421875" departLane="best" from="-785902540#2" to="-785902540#1"/>
<trip id="veh46" type="veh_passenger" depart="1188.0" departLane="best" from="785902529" to="-785902540#1"/>
<trip id="veh7352" type="veh_passenger" depart="1190.768798828125" departLane="best" from="-785902540#2" to="-785902540#1"/>
<trip id="veh11031" type="veh_passenger" depart="1193.8779296875" departLane="best" from="785902540#0" to="785902540#2"/>
<trip id="veh3828" type="veh_passenger" depart="1199.999755859375" departLane="best" from="-732022517" to="785902540#2"/>
<trip id="veh7353" type="veh_passenger" depart="1204.6148681640625" departLane="best" from="-785902540#2" to="-785902540#1"/>
<trip id="veh11032" type="veh_passenger" depart="1212.245361328125" departLane="best" from="785902540#0" to="785902540#2"/>
<trip id="veh7354" type="veh_passenger" depart="1218.4609375" departLane="best" from="-785902540#2" to="-785902540#1"/>
<trip id="veh47" type="veh_passenger" depart="1224.0" departLane="best" from="785902529" to="732022517"/>
<trip id="veh11033" type="veh_passenger" depart="1230.6126708984375" departLane="best" from="785902540#0" to="785902540#2"/>
<trip id="veh7355" type="veh_passenger" depart="1232.30712890625" departLane="best" from="-785902540#2" to="-785902540#1"/>
<trip id="veh3829" type="veh_passenger" depart="1242.85693359375" departLane="best" from="-732022517" to="785902540#2"/>
<trip id="veh7356" type="veh_passenger" depart="1246.1533203125" departLane="best" from="-785902540#2" to="-785902540#1"/>
<trip id="veh11034" type="veh_passenger" depart="1248.97998046875" departLane="best" from="785902540#0" to="785902540#2"/>
<trip id="veh7357" type="veh_passenger" depart="1259.9993896484375" departLane="best" from="-785902540#2" to="-785902540#1"/>
<trip id="veh48" type="veh_passenger" depart="1260.0" departLane="best" from="785902529" to="-785902540#1"/>
<trip id="veh11035" type="veh_passenger" depart="1267.347412109375" departLane="best" from="785902540#0" to="785902540#2"/>
<trip id="veh7358" type="veh_passenger" depart="1273.845458984375" departLane="best" from="-785902540#2" to="-785902540#1"/>
<trip id="veh3830" type="veh_passenger" depart="1285.714111328125" departLane="best" from="-732022517" to="-785902529"/>
<trip id="veh11036" type="veh_passenger" depart="1285.71484375" departLane="best" from="785902540#0" to="785902540#2"/>
<trip id="veh7359" type="veh_passenger" depart="1287.691650390625" departLane="best" from="-785902540#2" to="-785902529"/>
<trip id="veh49" type="veh_passenger" depart="1296.0" departLane="best" from="785902529" to="732022517"/>
<trip id="veh7360" type="veh_passenger" depart="1301.537841796875" departLane="best" from="-785902540#2" to="-785902540#1"/>
<trip id="veh11037" type="veh_passenger" depart="1304.0821533203125" departLane="best" from="785902540#0" to="785902540#2"/>
<trip id="veh7361" type="veh_passenger" depart="1315.3839111328125" departLane="best" from="-785902540#2" to="-785902540#1"/>
<trip id="veh11038" type="veh_passenger" depart="1322.449462890625" departLane="best" from="785902540#0" to="785902540#2"/>
<trip id="veh3831" type="veh_passenger" depart="1328.5711669921875" departLane="best" from="-732022517" to="-785902529"/>
<trip id="veh7362" type="veh_passenger" depart="1329.22998046875" departLane="best" from="-785902540#2" to="-785902540#1"/>
<trip id="veh50" type="veh_passenger" depart="1332.0" departLane="best" from="785902529" to="732022517"/>
<trip id="veh11039" type="veh_passenger" depart="1340.81689453125" departLane="best" from="785902540#0" to="785902540#2"/>
<trip id="veh7363" type="veh_passenger" depart="1343.076171875" departLane="best" from="-785902540#2" to="-785902540#1"/>
<trip id="veh7364" type="veh_passenger" depart="1356.92236328125" departLane="best" from="-785902540#2" to="-785902540#1"/>
<trip id="veh11040" type="veh_passenger" depart="1359.184326171875" departLane="best" from="785902540#0" to="732022517"/>
<trip id="veh51" type="veh_passenger" depart="1368.0" departLane="best" from="785902529" to="732022517"/>
<trip id="veh7365" type="veh_passenger" depart="1370.7684326171875" departLane="best" from="-785902540#2" to="-785902540#1"/>
<trip id="veh3832" type="veh_passenger" depart="1371.42822265625" departLane="best" from="-732022517" to="-785902529"/>
<trip id="veh11041" type="veh_passenger" depart="1377.5516357421875" departLane="best" from="785902540#0" to="785902540#2"/>
<trip id="veh7366" type="veh_passenger" depart="1384.614501953125" departLane="best" from="-785902540#2" to="-785902540#1"/>
<trip id="veh11042" type="veh_passenger" depart="1395.9189453125" departLane="best" from="785902540#0" to="785902540#2"/>
<trip id="veh7367" type="veh_passenger" depart="1398.460693359375" departLane="best" from="-785902540#2" to="-785902540#1"/>
<trip id="veh52" type="veh_passenger" depart="1404.0" departLane="best" from="785902529" to="-785902540#1"/>
<trip id="veh7368" type="veh_passenger" depart="1412.306884765625" departLane="best" from="-785902540#2" to="-785902540#1"/>
<trip id="veh3833" type="veh_passenger" depart="1414.285400390625" departLane="best" from="-732022517" to="785902540#2"/>
<trip id="veh11043" type="veh_passenger" depart="1414.286376953125" departLane="best" from="785902540#0" to="732022517"/>
<trip id="veh7369" type="veh_passenger" depart="1426.1529541015625" departLane="best" from="-785902540#2" to="-785902529"/>
<trip id="veh11044" type="veh_passenger" depart="1432.65380859375" departLane="best" from="785902540#0" to="732022517"/>
<trip id="veh7370" type="veh_passenger" depart="1439.9990234375" departLane="best" from="-785902540#2" to="-785902540#1"/>
<trip id="veh53" type="veh_passenger" depart="1440.0" departLane="best" from="785902529" to="-785902540#1"/>
<trip id="veh11045" type="veh_passenger" depart="1451.0211181640625" departLane="best" from="785902540#0" to="732022517"/>
<trip id="veh7371" type="veh_passenger" depart="1453.84521484375" departLane="best" from="-785902540#2" to="-785902540#1"/>
<trip id="veh3834" type="veh_passenger" depart="1457.142578125" departLane="best" from="-732022517" to="-785902529"/>
<trip id="veh7372" type="veh_passenger" depart="1467.69140625" departLane="best" from="-785902540#2" to="-785902540#1"/>
<trip id="veh11046" type="veh_passenger" depart="1469.388427734375" departLane="best" from="785902540#0" to="732022517"/>
<trip id="veh54" type="veh_passenger" depart="1476.0" departLane="best" from="785902529" to="-785902540#1"/>
<trip id="veh7373" type="veh_passenger" depart="1481.5374755859375" departLane="best" from="-785902540#2" to="-785902540#1"/>
<trip id="veh11047" type="veh_passenger" depart="1487.755859375" departLane="best" from="785902540#0" to="732022517"/>
<trip id="veh7374" type="veh_passenger" depart="1495.383544921875" departLane="best" from="-785902540#2" to="-785902529"/>
<trip id="veh3835" type="veh_passenger" depart="1499.9996337890625" departLane="best" from="-732022517" to="785902540#2"/>
<trip id="veh11048" type="veh_passenger" depart="1506.123291015625" departLane="best" from="785902540#0" to="732022517"/>
<trip id="veh7375" type="veh_passenger" depart="1509.229736328125" departLane="best" from="-785902540#2" to="-785902540#1"/>
<trip id="veh55" type="veh_passenger" depart="1512.0" departLane="best" from="785902529" to="-785902540#1"/>
<trip id="veh7376" type="veh_passenger" depart="1523.075927734375" departLane="best" from="-785902540#2" to="-785902529"/>
<trip id="veh11049" type="veh_passenger" depart="1524.4906005859375" departLane="best" from="785902540#0" to="732022517"/>
<trip id="veh7377" type="veh_passenger" depart="1536.9219970703125" departLane="best" from="-785902540#2" to="-785902540#1"/>
<trip id="veh3836" type="veh_passenger" depart="1542.856689453125" departLane="best" from="-732022517" to="-785902529"/>
<trip id="veh11050" type="veh_passenger" depart="1542.85791015625" departLane="best" from="785902540#0" to="785902540#2"/>
<trip id="veh56" type="veh_passenger" depart="1548.0" departLane="best" from="785902529" to="-785902540#1"/>
<trip id="veh7378" type="veh_passenger" depart="1550.76806640625" departLane="best" from="-785902540#2" to="-785902540#1"/>
<trip id="veh11051" type="veh_passenger" depart="1561.225341796875" departLane="best" from="785902540#0" to="732022517"/>
<trip id="veh7379" type="veh_passenger" depart="1564.6142578125" departLane="best" from="-785902540#2" to="-785902529"/>
<trip id="veh7380" type="veh_passenger" depart="1578.46044921875" departLane="best" from="-785902540#2" to="-785902540#1"/>
<trip id="veh11052" type="veh_passenger" depart="1579.5927734375" departLane="best" from="785902540#0" to="732022517"/>
<trip id="veh57" type="veh_passenger" depart="1584.0" departLane="best" from="785902529" to="732022517"/>
<trip id="veh3837" type="veh_passenger" depart="1585.7138671875" departLane="best" from="-732022517" to="785902540#2"/>
<trip id="veh7381" type="veh_passenger" depart="1592.3065185546875" departLane="best" from="-785902540#2" to="-785902540#1"/>
<trip id="veh11053" type="veh_passenger" depart="1597.9600830078125" departLane="best" from="785902540#0" to="732022517"/>
<trip id="veh7382" type="veh_passenger" depart="1606.152587890625" departLane="best" from="-785902540#2" to="-785902540#1"/>
<trip id="veh11054" type="veh_passenger" depart="1616.327392578125" departLane="best" from="785902540#0" to="785902540#2"/>
<trip id="veh7383" type="veh_passenger" depart="1619.998779296875" departLane="best" from="-785902540#2" to="-785902540#1"/>
<trip id="veh58" type="veh_passenger" depart="1620.0" departLane="best" from="785902529" to="732022517"/>
<trip id="veh3838" type="veh_passenger" depart="1628.571044921875" departLane="best" from="-732022517" to="785902540#2"/>
<trip id="veh7384" type="veh_passenger" depart="1633.844970703125" departLane="best" from="-785902540#2" to="-785902540#1"/>
<trip id="veh11055" type="veh_passenger" depart="1634.69482421875" departLane="best" from="785902540#0" to="785902540#2"/>
<trip id="veh7385" type="veh_passenger" depart="1647.6910400390625" departLane="best" from="-785902540#2" to="-785902540#1"/>
<trip id="veh11056" type="veh_passenger" depart="1653.062255859375" departLane="best" from="785902540#0" to="785902540#2"/>
<trip id="veh59" type="veh_passenger" depart="1656.0" departLane="best" from="785902529" to="732022517"/>
<trip id="veh7386" type="veh_passenger" depart="1661.537109375" departLane="best" from="-785902540#2" to="-785902540#1"/>
<trip id="veh3839" type="veh_passenger" depart="1671.4281005859375" departLane="best" from="-732022517" to="-785902529"/>
<trip id="veh11057" type="veh_passenger" depart="1671.4295654296875" departLane="best" from="785902540#0" to="785902540#2"/>
<trip id="veh7387" type="veh_passenger" depart="1675.38330078125" departLane="best" from="-785902540#2" to="-785902540#1"/>
<trip id="veh7388" type="veh_passenger" depart="1689.2294921875" departLane="best" from="-785902540#2" to="-785902529"/>
<trip id="veh11058" type="veh_passenger" depart="1689.796875" departLane="best" from="785902540#0" to="785902540#2"/>
<trip id="veh60" type="veh_passenger" depart="1692.0" departLane="best" from="785902529" to="-785902540#1"/>
<trip id="veh7389" type="veh_passenger" depart="1703.0755615234375" departLane="best" from="-785902540#2" to="-785902540#1"/>
<trip id="veh11059" type="veh_passenger" depart="1708.164306640625" departLane="best" from="785902540#0" to="732022517"/>
<trip id="veh3840" type="veh_passenger" depart="1714.28515625" departLane="best" from="-732022517" to="-785902529"/>
<trip id="veh7390" type="veh_passenger" depart="1716.921630859375" departLane="best" from="-785902540#2" to="-785902529"/>
<trip id="veh11060" type="veh_passenger" depart="1726.53173828125" departLane="best" from="785902540#0" to="785902540#2"/>
<trip id="veh61" type="veh_passenger" depart="1728.0" departLane="best" from="785902529" to="-785902540#1"/>
<trip id="veh7391" type="veh_passenger" depart="1730.767822265625" departLane="best" from="-785902540#2" to="-785902529"/>
<trip id="veh7392" type="veh_passenger" depart="1744.614013671875" departLane="best" from="-785902540#2" to="-785902529"/>
<trip id="veh11061" type="veh_passenger" depart="1744.8990478515625" departLane="best" from="785902540#0" to="732022517"/>
<trip id="veh3841" type="veh_passenger" depart="1757.142333984375" departLane="best" from="-732022517" to="785902540#2"/>
<trip id="veh7393" type="veh_passenger" depart="1758.4600830078125" departLane="best" from="-785902540#2" to="-785902540#1"/>
<trip id="veh11062" type="veh_passenger" depart="1763.266357421875" departLane="best" from="785902540#0" to="732022517"/>
<trip id="veh62" type="veh_passenger" depart="1764.0" departLane="best" from="785902529" to="-785902540#1"/>
<trip id="veh7394" type="veh_passenger" depart="1772.30615234375" departLane="best" from="-785902540#2" to="-785902540#1"/>
<trip id="veh11063" type="veh_passenger" depart="1781.6337890625" departLane="best" from="785902540#0" to="732022517"/>
<trip id="veh7395" type="veh_passenger" depart="1786.15234375" departLane="best" from="-785902540#2" to="-785902540#1"/>
<trip id="veh63" type="veh_passenger" depart="1800.0" departLane="best" from="785902529" to="732022517"/>
<trip id="veh3842" type="veh_passenger" depart="1800.0" departLane="best" from="-732022517" to="785902540#2"/>
<trip id="veh7396" type="veh_passenger" depart="1800.0" departLane="best" from="-785902540#2" to="-785902540#1"/>