<?xml version="1.0" encoding="UTF-8"?>

<routes xmlns:xsi="http://www.w3.org/2001/XMLSchema-instance" xsi:noNamespaceSchemaLocation="http://sumo.dlr.de/xsd/routes_file.xsd">
<vType id="veh_passenger" vClass="passenger" length="5.7"/>




<trip id="veh0" type="veh_passenger" depart="0.0" departLane="best" from="785902529" to="732022517"/>
<trip id="veh6417" type="veh_passenger" depart="0.0" departLane="best" from="-785902540#2" to="-785902540#1"/>
<trip id="veh9698" type="veh_passenger" depart="0.0" departLane="best" from="785902540#0" to="785902540#2"/>
<trip id="veh9699" type="veh_passenger" depart="36.0" departLane="best" from="785902540#0" to="785902540#2"/>
<trip id="veh1" type="veh_passenger" depart="56.25" departLane="best" from="785902529" to="-785902540#1"/>
<trip id="veh9700" type="veh_passenger" depart="72.0" departLane="best" from="785902540#0" to="732022517"/>
<trip id="veh9701" type="veh_passenger" depart="108.0" departLane="best" from="785902540#0" to="785902540#2"/>
<trip id="veh2" type="veh_passenger" depart="112.5" departLane="best" from="785902529" to="732022517"/>
<trip id="veh9702" type="veh_passenger" depart="144.0" departLane="best" from="785902540#0" to="785902540#2"/>
<trip id="veh3" type="veh_passenger" depart="168.75" departLane="best" from="785902529" to="732022517"/>
<trip id="veh9703" type="veh_passenger" depart="180.0" departLane="best" from="785902540#0" to="732022517"/>
<trip id="veh9704" type="veh_passenger" depart="216.0" departLane="best" from="785902540#0" to="732022517"/>
<trip id="veh4" type="veh_passenger" depart="225.0" departLane="best" from="785902529" to="-785902540#1"/>
<trip id="veh9705" type="veh_passenger" depart="252.0" departLane="best" from="785902540#0" to="732022517"/>
<trip id="veh5" type="veh_passenger" depart="281.25" departLane="best" from="785902529" to="732022517"/>
<trip id="veh9706" type="veh_passenger" depart="288.0" departLane="best" from="785902540#0" to="732022517"/>
<trip id="veh9707" type="veh_passenger" depart="324.0" departLane="best" from="785902540#0" to="785902540#2"/>
<trip id="veh6" type="veh_passenger" depart="337.5" departLane="best" from="785902529" to="-785902540#1"/>
<trip id="veh9708" type="veh_passenger" depart="360.0" departLane="best" from="785902540#0" to="785902540#2"/>
<trip id="veh7" type="veh_passenger" depart="393.75" departLane="best" from="785902529" to="-785902540#1"/>
<trip id="veh9709" type="veh_passenger" depart="396.0" departLane="best" from="785902540#0" to="732022517"/>
<trip id="veh9710" type="veh_passenger" depart="432.0" departLane="best" from="785902540#0" to="785902540#2"/>
<trip id="veh8" type="veh_passenger" depart="450.0" departLane="best" from="785902529" to="732022517"/>
<trip id="veh9711" type="veh_passenger" depart="468.0" departLane="best" from="785902540#0" to="732022517"/>
<trip id="veh9712" type="veh_passenger" depart="504.0" departLane="best" from="785902540#0" to="785902540#2"/>
<trip id="veh9" type="veh_passenger" depart="506.25" departLane="best" from="785902529" to="-785902540#1"/>
<trip id="veh9713" type="veh_passenger" depart="540.0" departLane="best" from="785902540#0" to="785902540#2"/>
<trip id="veh10" type="veh_passenger" depart="562.5" departLane="best" from="785902529" to="732022517"/>
<trip id="veh9714" type="veh_passenger" depart="576.0" departLane="best" from="785902540#0" to="785902540#2"/>
<trip id="veh9715" type="veh_passenger" depart="612.0" departLane="best" from="785902540#0" to="732022517"/>
<trip id="veh11" type="veh_passenger" depart="618.75" departLane="best" from="785902529" to="732022517"/>
<trip id="veh9716" type="veh_passenger" depart="648.0" departLane="best" from="785902540#0" to="785902540#2"/>
<trip id="veh12" type="veh_passenger" depart="675.0" departLane="best" from="785902529" to="732022517"/>
<trip id="veh9717" type="veh_passenger" depart="684.0" departLane="best" from="785902540#0" to="785902540#2"/>
<trip id="veh9718" type="veh_passenger" depart="720.0" departLane="best" from="785902540#0" to="785902540#2"/>
<trip id="veh13" type="veh_passenger" depart="731.25" departLane="best" from="785902529" to="-785902540#1"/>
<trip id="veh9719" type="veh_passenger" depart="756.0" departLane="best" from="785902540#0" to="732022517"/>
<trip id="veh14" type="veh_passenger" depart="787.5" departLane="best" from="785902529" to="-785902540#1"/>
<trip id="veh9720" type="veh_passenger" depart="792.0" departLane="best" from="785902540#0" to="732022517"/>
<trip id="veh9721" type="veh_passenger" depart="828.0" departLane="best" from="785902540#0" to="785902540#2"/>
<trip id="veh15" type="veh_passenger" depart="843.75" departLane="best" from="785902529" to="-785902540#1"/>
<trip id="veh9722" type="veh_passenger" depart="864.0" departLane="best" from="785902540#0" to="785902540#2"/>
<trip id="veh16" type="veh_passenger" depart="900.0" departLane="best" from="785902529" to="732022517"/>
<trip id="veh3230" type="veh_passenger" depart="900.0" departLane="best" from="-732022517" to="785902540#2"/>
<trip id="veh6418" type="veh_passenger" depart="900.0" departLane="best" from="-785902540#2" to="-785902540#1"/>
<trip id="veh9723" type="veh_passenger" depart="900.0" departLane="best" from="785902540#0" to="785902540#2"/>
<trip id="veh6419" type="veh_passenger" depart="915.0" departLane="best" from="-785902540#2" to="-785902540#1"/>
<trip id="veh9724" type="veh_passenger" depart="918.0" departLane="best" from="785902540#0" to="785902540#2"/>
<trip id="veh6420" type="veh_passenger" depart="930.0" departLane="best" from="-785902540#2" to="-785902529"/>
<trip id="veh17" type="veh_passenger" depart="932.1428833007812" departLane="best" from="785902529" to="732022517"/>
<trip id="veh3231" type="veh_passenger" depart="932.1428833007812" departLane="best" from="-732022517" to="-785902529"/>
<trip id="veh9725" type="veh_passenger" depart="936.0" departLane="best" from="785902540#0" to="785902540#2"/>
<trip id="veh6421" type="veh_passenger" depart="945.0" departLane="best" from="-785902540#2" to="-785902540#1"/>
<trip id="veh9726" type="veh_passenger" depart="954.0" departLane="best" from="785902540#0" to="785902540#2"/>
<trip id="veh6422" type="veh_passenger" depart="960.0" departLane="best" from="-785902540#2" to="-785902529"/>
<trip id="veh18" type="veh_passenger" depart="964.2857666015625" departLane="best" from="785902529" to="-785902540#1"/>
<trip id="veh3232" type="veh_passenger" depart="964.2857666015625" departLane="best" from="-732022517" to="-785902529"/>
<trip id="veh9727" type="veh_passenger" depart="972.0" departLane="best" from="785902540#0" to="785902540#2"/>
<trip id="veh6423" type="veh_passenger" depart="975.0" departLane="best" from="-785902540#2" to="-785902529"/>
<trip id="veh6424" type="veh_passenger" depart="990.0" departLane="best" from="-785902540#2" to="-785902529"/>
<trip id="veh9728" type="veh_passenger" depart="990.0" departLane="best" from="785902540#0" to="785902540#2"/>
<trip id="veh19" type="veh_passenger" depart="996.4286499023438" departLane="best" from="785902529" to="-785902540#1"/>
<trip id="veh3233" type="veh_passenger" depart="996.4286499023438" departLane="best" from="-732022517" to="-785902529"/>
<trip id="veh6425" type="veh_passenger" depart="1005.0" departLane="best" from="-785902540#2" to="-785902529"/>
<trip id="veh9729" type="veh_passenger" depart="1008.0" departLane="best" from="785902540#0" to="785902540#2"/>
<trip id="veh6426" type="veh_passenger" depart="1020.0" departLane="best" from="-785902540#2" to="-785902540#1"/>
<trip id="veh9730" type="veh_passenger" depart="1026.0" departLane="best" from="785902540#0" to="732022517"/>
<trip id="veh20" type="veh_passenger" depart="1028.571533203125" departLane="best" from="785902529" to="732022517"/>
<trip id="veh3234" type="veh_passenger" depart="1028.571533203125" departLane="best" from="-732022517" to="785902540#2"/>
<trip id="veh6427" type="veh_passenger" depart="1035.0" departLane="best" from="-785902540#2" to="-785902540#1"/>
<trip id="veh9731" type="veh_passenger" depart="1044.0" departLane="best" from="785902540#0" to="732022517"/>
<trip id="veh6428" type="veh_passenger" depart="1050.0" departLane="best" from="-785902540#2" to="-785902540#1"/>
<trip id="veh21" type="veh_passenger" depart="1060.71435546875" departLane="best" from="785902529" to="-785902540#1"/>
<trip id="veh3235" type="veh_passenger" depart="1060.71435546875" departLane="best" from="-732022517" to="-785902529"/>
<trip id="veh9732" type="veh_passenger" depart="1062.0" departLane="best" from="785902540#0" to="785902540#2"/>
<trip id="veh6429" type="veh_passenger" depart="1065.0" departLane="best" from="-785902540#2" to="-785902529"/>
<trip id="veh6430" type="veh_passenger" depart="1080.0" departLane="best" from="-785902540#2" to="-785902529"/>
<trip id="veh9733" type="veh_passenger" depart="1080.0" departLane="best" from="785902540#0" to="732022517"/>
<trip id="veh22" type="veh_passenger" depart="1092.8572998046875" departLane="best" from="785902529" to="-785902540#1"/>
<trip id="veh3236" type="veh_passenger" depart="1092.8572998046875" departLane="best" from="-732022517" to="-785902529"/>
<trip id="veh6431" type="veh_passenger" depart="1095.0" departLane="best" from="-785902540#2" to="-785902540#1"/>
<trip id="veh9734" type="veh_passenger" depart="1098.0" departLane="best" from="785902540#0" to="785902540#2"/>
<trip id="veh6432" type="veh_passenger" depart="1110.0" departLane="best" from="-785902540#2" to="-785902540#1"/>
<trip id="veh9735" type="veh_passenger" depart="1116.0" departLane="best" from="785902540#0" to="732022517"/>
<trip id="veh6433" type="veh_passenger" depart="1125.0" departLane="best" from="-785902540#2" to="-785902529"/>
<trip id="veh23" type="veh_passenger" depart="1125.000244140625" departLane="best" from="785902529" to="732022517"/>
<trip id="veh3237" type="veh_passenger" depart="1125.000244140625" departLane="best" from="-732022517" to="-785902529"/>
<trip id="veh9736" type="veh_passenger" depart="1134.0" departLane="best" from="785902540#0" to="732022517"/>
<trip id="veh6434" type="veh_passenger" depart="1140.0" departLane="best" from="-785902540#2" to="-785902529"/>
<trip id="veh9737" type="veh_passenger" depart="1152.0" departLane="best" from="785902540#0" to="785902540#2"/>
<trip id="veh6435" type="veh_passenger" depart="1155.0" departLane="best" from="-785902540#2" to="-785902540#1"/>
<trip id="veh24" type="veh_passenger" depart="1157.14306640625" departLane="best" from="785902529" to="732022517"/>
<trip id="veh3238" type="veh_passenger" depart="1157.14306640625" departLane="best" from="-732022517" to="785902540#2"/>
<trip id="veh6436" type="veh_passenger" depart="1170.0" departLane="best" from="-785902540#2" to="-785902540#1"/>
<trip id="veh9738" type="veh_passenger" depart="1170.0" departLane="best" from="785902540#0" to="732022517"/>
<trip id="veh6437" type="veh_passenger" depart="1185.0" departLane="best" from="-785902540#2" to="-785902540#1"/>
<trip id="veh9739" type="veh_passenger" depart="1188.0" departLane="best" from="785902540#0" to="785902540#2"/>
<trip id="veh25" type="veh_passenger" depart="1189.285888671875" departLane="best" from="785902529" to="732022517"/>
<trip id="veh3239" type="veh_passenger" depart="1189.285888671875" departLane="best" from="-732022517" to="-785902529"/>
<trip id="veh6438" type="veh_passenger" depart="1200.0" departLane="best" from="-785902540#2" to="-785902529"/>
<trip id="veh9740" type="veh_passenger" depart="1206.0" departLane="best" from="785902540#0" to="785902540#2"/>
<trip id="veh6439" type="veh_passenger" depart="1215.0" departLane="best" from="-785902540#2" to="-785902540#1"/>
<trip id="veh26" type="veh_passenger" depart="1221.4288330078125" departLane="best" from="785902529" to="732022517"/>
<trip id="veh3240" type="veh_passenger" depart="1221.4288330078125" departLane="best" from="-732022517" to="-785902529"/>
<trip id="veh9741" type="veh_passenger" depart="1224.0" departLane="best" from="785902540#0" to="732022517"/>
<trip id="veh6440" type="veh_passenger" depart="1230.0" departLane="best" from="-785902540#2" to="-785902540#1"/>
<trip id="veh9742" type="veh_passenger" depart="1242.0" departLane="best" from="785902540#0" to="732022517"/>
<trip id="veh6441" type="veh_passenger" depart="1245.0" departLane="best" from="-785902540#2" to="-785902540#1"/>
<trip id="veh27" type="veh_passenger" depart="1253.57177734375" departLane="best" from="785902529" to="-785902540#1"/>
<trip id="veh3241" type="veh_passenger" depart="1253.57177734375" departLane="best" from="-732022517" to="-785902529"/>
<trip id="veh6442" type="veh_passenger" depart="1260.0" departLane="best" from="-785902540#2" to="-785902540#1"/>
<trip id="veh9743" type="veh_passenger" depart="1260.0" departLane="best" from="785902540#0" to="785902540#2"/>
<trip id="veh6443" type="veh_passenger" depart="1275.0" departLane="best" from="-785902540#2" to="-785902540#1"/>
<trip id="veh9744" type="veh_passenger" depart="1278.0" departLane="best" from="785902540#0" to="732022517"/>
<trip id="veh28" type="veh_passenger" depart="1285.714599609375" departLane="best" from="785902529" to="-785902540#1"/>
<trip id="veh3242" type="veh_passenger" depart="1285.714599609375" departLane="best" from="-732022517" to="-785902529"/>
<trip id="veh6444" type="veh_passenger" depart="1290.0" departLane="best" from="-785902540#2" to="-785902529"/>
<trip id="veh9745" type="veh_passenger" depart="1296.0" departLane="best" from="785902540#0" to="785902540#2"/>
<trip id="veh6445" type="veh_passenger" depart="1305.0" departLane="best" from="-785902540#2" to="-785902529"/>
<trip id="veh9746" type="veh_passenger" depart="1314.0" departLane="best" from="785902540#0" to="785902540#2"/>
<trip id="veh29" type="veh_passenger" depart="1317.857421875" departLane="best" from="785902529" to="732022517"/>
<trip id="veh3243" type="veh_passenger" depart="1317.857421875" departLane="best" from="-732022517" to="785902540#2"/>
<trip id="veh6446" type="veh_passenger" depart="1320.0" departLane="best" from="-785902540#2" to="-785902540#1"/>
<trip id="veh9747" type="veh_passenger" depart="1332.0" departLane="best" from="785902540#0" to="785902540#2"/>
<trip id="veh6447" type="veh_passenger" depart="1335.0" departLane="best" from="-785902540#2" to="-785902540#1"/>
<trip id="veh6448" type="veh_passenger" depart="1350.0" departLane="best" from="-785902540#2" to="-785902540#1"/>
<trip id="veh9748" type="veh_passenger" depart="1350.0" departLane="best" from="785902540#0" to="732022517"/>
<trip id="veh30" type="veh_passenger" depart="1350.0003662109375" departLane="best" from="785902529" to="732022517"/>
<trip id="veh3244" type="veh_passenger" depart="1350.0003662109375" departLane="best" from="-732022517" to="-785902529"/>
<trip id="veh6449" type="veh_passenger" depart="1365.0" departLane="best" from="-785902540#2" to="-785902540#1"/>
<trip id="veh9749" type="veh_passenger" depart="1368.0" departLane="best" from="785902540#0" to="785902540#2"/>
<trip id="veh6450" type="veh_passenger" depart="1380.0" departLane="best" from="-785902540#2" to="-785902540#1"/>
<trip id="veh31" type="veh_passenger" depart="1382.143310546875" departLane="best" from="785902529" to="-785902540#1"/>
<trip id="veh3245" type="veh_passenger" depart="1382.143310546875" departLane="best" from="-732022517" to="-785902529"/>
<trip id="veh9750" type="veh_passenger" depart="1386.0" departLane="best" from="785902540#0" to="785902540#2"/>
<trip id="veh6451" type="veh_passenger" depart="1395.0" departLane="best" from="-785902540#2" to="-785902529"/>
<trip id="veh9751" type="veh_passenger" depart="1404.0" departLane="best" from="785902540#0" to="732022517"/>
<trip id="veh6452" type="veh_passenger" depart="1410.0" departLane="best" from="-785902540#2" to="-785902540#1"/>
<trip id="veh32" type="veh_passenger" depart="1414.2861328125" departLane="best" from="785902529" to="732022517"/>
<trip id="veh3246" type="veh_passenger" depart="1414.2861328125" departLane="best" from="-732022517" to="-785902529"/>
<trip id="veh9752" type="veh_passenger" depart="1422.0" departLane="best" from="785902540#0" to="732022517"/>
<trip id="veh6453" type="veh_passenger" depart="1425.0" departLane="best" from="-785902540#2" to="-785902529"/>
<trip id="veh6454" type="veh_passenger" depart="1440.0" departLane="best" from="-785902540#2" to="-785902529"/>
<trip id="veh9753" type="veh_passenger" depart="1440.0" departLane="best" from="785902540#0" to="732022517"/>
<trip id="veh33" type="veh_passenger" depart="1446.428955078125" departLane="best" from="785902529" to="-785902540#1"/>
<trip id="veh3247" type="veh_passenger" depart="1446.428955078125" departLane="best" from="-732022517" to="-785902529"/>
<trip id="veh6455" type="veh_passenger" depart="1455.0" departLane="best" from="-785902540#2" to="-785902540#1"/>
<trip id="veh9754" type="veh_passenger" depart="1458.0" departLane="best" from="785902540#0" to="732022517"/>
<trip id="veh6456" type="veh_passenger" depart="1470.0" departLane="best" from="-785902540#2" to="-785902529"/>
<trip id="veh9755" type="veh_passenger" depart="1476.0" departLane="best" from="785902540#0" to="732022517"/>
<trip id="veh34" type="veh_passenger" depart="1478.5718994140625" departLane="best" from="785902529" to="732022517"/>
<trip id="veh3248" type="veh_passenger" depart="1478.5718994140625" departLane="best" from="-732022517" to="-785902529"/>
<trip id="veh6457" type="veh_passenger" depart="1485.0" departLane="best" from="-785902540#2" to="-785902540#1"/>
<trip id="veh9756" type="veh_passenger" depart="1494.0" departLane="best" from="785902540#0" to="785902540#2"/>
<trip id="veh6458" type="veh_passenger" depart="1500.0" departLane="best" from="-785902540#2" to="-785902540#1"/>
<trip id="veh35" type="veh_passenger" depart="1510.71484375" departLane="best" from="785902529" to="-785902540#1"/>
<trip id="veh3249" type="veh_passenger" depart="1510.71484375" departLane="best" from="-732022517" to="-785902529"/>
<trip id="veh9757" type="veh_passenger" depart="1512.0" departLane="best" from="785902540#0" to="732022517"/>
<trip id="veh6459" type="veh_passenger" depart="1515.0" departLane="best" from="-785902540#2" to="-785902540#1"/>
<trip id="veh6460" type="veh_passenger" depart="1530.0" departLane="best" from="-785902540#2" to="-785902529"/>
<trip id="veh9758" type="veh_passenger" depart="1530.0" departLane="best" from="785902540#0" to="785902540#2"/>
<trip id="veh36" type="veh_passenger" depart="1542.857666015625" departLane="best" from="785902529" to="-785902540#1"/>
<trip id="veh3250" type="veh_passenger" depart="1542.857666015625" departLane="best" from="-732022517" to="-785902529"/>
<trip id="veh6461" type="veh_passenger" depart="1545.0" departLane="best" from="-785902540#2" to="-785902529"/>
<trip id="veh9759" type="veh_passenger" depart="1548.0" departLane="best" from="785902540#0" to="732022517"/>
<trip id="veh6462" type="veh_passenger" depart="1560.0" departLane="best" from="-785902540#2" to="-785902529"/>
<trip id="veh9760" type="veh_passenger" depart="1566.0" departLane="best" from="785902540#0" to="785902540#2"/>
<trip id="veh6463" type="veh_passenger" depart="1575.0" departLane="best" from="-785902540#2" to="-785902540#1"/>
<trip id="veh37" type="veh_passenger" depart="1575.00048828125" departLane="best" from="785902529" to="-785902540#1"/>
<trip id="veh3251" type="veh_passenger" depart="1575.00048828125" departLane="best" from="-732022517" to="-785902529"/>
<trip id="veh9761" type="veh_passenger" depart="1584.0" departLane="best" from="785902540#0" to="732022517"/>
<trip id="veh6464" type="veh_passenger" depart="1590.0" departLane="best" from="-785902540#2" to="-785902540#1"/>
<trip id="veh9762" type="veh_passenger" depart="1602.0" departLane="best" from="785902540#0" to="732022517"/>
<trip id="veh6465" type="veh_passenger" depart="1605.0" departLane="best" from="-785902540#2" to="-785902540#1"/>
<trip id="veh38" type="veh_passenger" depart="1607.1434326171875" departLane="best" from="785902529" to="-785902540#1"/>
<trip id="veh3252" type="veh_passenger" depart="1607.1434326171875" departLane="best" from="-732022517" to="-785902529"/>
<trip id="veh6466" type="veh_passenger" depart="1620.0" departLane="best" from="-785902540#2" to="-785902529"/>
<trip id="veh9763" type="veh_passenger" depart="1620.0" departLane="best" from="785902540#0" to="732022517"/>
<trip id="veh6467" type="veh_passenger" depart="1635.0" departLane="best" from="-785902540#2" to="-785902540#1"/>
<trip id="veh9764" type="veh_passenger" depart="1638.0" departLane="best" from="785902540#0" to="785902540#2"/>
<trip id="veh39" type="veh_passenger" depart="1639.286376953125" departLane="best" from="785902529" to="-785902540#1"/>
<trip id="veh3253" type="veh_passenger" depart="1639.286376953125" departLane="best" from="-732022517" to="785902540#2"/>
<trip id="veh6468" type="veh_passenger" depart="1650.0" departLane="best" from="-785902540#2" to="-785902529"/>
<trip id="veh9765" type="veh_passenger" depart="1656.0" departLane="best" from="785902540#0" to="785902540#2"/>
<trip id="veh6469" type="veh_passenger" depart="1665.0" departLane="best" from="-785902540#2" to="-785902529"/>
<trip id="veh40" type="veh_passenger" depart="1671.42919921875" departLane="best" from="785902529" to="-785902540#1"/>
<trip id="veh3254" type="veh_passenger" depart="1671.42919921875" departLane="best" from="-732022517" to="-785902529"/>
<trip id="veh9766" type="veh_passenger" depart="1674.0" departLane="best" from="785902540#0" to="785902540#2"/>
<trip id="veh6470" type="veh_passenger" depart="1680.0" departLane="best" from="-785902540#2" to="-785902529"/>
<trip id="veh9767" type="veh_passenger" depart="1692.0" departLane="best" from="785902540#0" to="785902540#2"/>
<trip id="veh6471" type="veh_passenger" depart="1695.0" departLane="best" from="-785902540#2" to="-785902540#1"/>
<trip id="veh41" type="veh_passenger" depart="1703.572021484375" departLane="best" from="785902529" to="-785902540#1"/>
<trip id="veh3255" type="veh_passenger" depart="1703.572021484375" departLane="best" from="-732022517" to="-785902529"/>
<trip id="veh6472" type="veh_passenger" depart="1710.0" departLane="best" from="-785902540#2" to="-785902540#1"/>
<trip id="veh9768" type="veh_passenger" depart="1710.0" departLane="best" from="785902540#0" to="785902540#2"/>
<trip id="veh6473" type="veh_passenger" depart="1725.0" departLane="best" from="-785902540#2" to="-785902529"/>
<trip id="veh9769" type="veh_passenger" depart="1728.0" departLane="best" from="785902540#0" to="785902540#2"/>
<trip id="veh42" type="veh_passenger" depart="1735.7149658203125" departLane="best" from="785902529" to="732022517"/>
<trip id="veh3256" type="veh_passenger" depart="1735.7149658203125" departLane="best" from="-732022517" to="-785902529"/>
<trip id="veh6474" type="veh_passenger" depart="1740.0" departLane="best" from="-785902540#2" to="-785902529"/>
<trip id="veh9770" type="veh_passenger" depart="1746.0" departLane="best" from="785902540#0" to="785902540#2"/>
<trip id="veh6475" type="veh_passenger" depart="1755.0" departLane="best" from="-785902540#2" to="-785902540#1"/>
<trip id="veh9771" type="veh_passenger" depart="1764.0" departLane="best" from="785902540#0" to="785902540#2"/>
<trip id="veh43" type="veh_passenger" depart="1767.85791015625" departLane="best" from="785902529" to="-785902540#1"/>
<trip id="veh3257" type="veh_passenger" depart="1767.85791015625" departLane="best" from="-732022517" to="785902540#2"/>
<trip id="veh6476" type="veh_passenger" depart="1770.0" departLane="best" from="-785902540#2" to="-785902540#1"/>
<trip id="veh9772" type="veh_passenger" depart="1782.0" departLane="best" from="785902540#0" to="732022517"/>
<trip id="veh6477" type="veh_passenger" depart="1785.0" departLane="best" from="-785902540#2" to="-785902540#1"/>
<trip id="veh44" type="veh_passenger" depart="1800.0" departLane="best" from="785902529" to="-785902540#1"/>
<trip id="veh3258" type="veh_passenger" depart="1800.0" departLane="best" from="-732022517" to="785902540#2"/>
<trip id="veh6478" type="veh_passenger" depart="1800.0" departLane="best" from="-785902540#2" to="-785902540#1"/>
<trip id="veh9773" type="veh_passenger" depart="1800.0" departLane="best" from="785902540#0" to="732022517"/>
<trip id="veh45" type="veh_passenger" depart="1814.0625" departLane="best" from="785902529" to="-785902540#1"/>
<trip id="veh6479" type="veh_passenger" depart="1820.0" departLane="best" from="-785902540#2" to="-785902540#1"/>
<trip id="veh46" type="veh_passenger" depart="1828.125" departLane="best" from="785902529" to="-785902540#1"/>
<trip id="veh6480" type="veh_passenger" depart="1840.0" departLane="best" from="-785902540#2" to="-785902540#1"/>
<trip id="veh47" type="veh_passenger" depart="1842.1875" departLane="best" from="785902529" to="732022517"/>
<trip id="veh48" type="veh_passenger" depart="1856.25" departLane="best" from="785902529" to="-785902540#1"/>
<trip id="veh3259" type="veh_passenger" depart="1856.25" departLane="best" from="-732022517" to="-785902529"/>
<trip id="veh6481" type="veh_passenger" depart="1860.0" departLane="best" from="-785902540#2" to="-785902529"/>
<trip id="veh9774" type="veh_passenger" depart="1860.0" departLane="best" from="785902540#0" to="785902540#2"/>
<trip id="veh49" type="veh_passenger" depart="1870.3125" departLane="best" from="785902529" to="732022517"/>
<trip id="veh6482" type="veh_passenger" depart="1880.0" departLane="best" from="-785902540#2" to="-785902529"/>
<trip id="veh50" type="veh_passenger" depart="1884.375" departLane="best" from="785902529" to="-785902540#1"/>
<trip id="veh51" type="veh_passenger" depart="1898.4375" departLane="best" from="785902529" to="732022517"/>
<trip id="veh6483" type="veh_passenger" depart="1900.0" departLane="best" from="-785902540#2" to="-785902529"/>
<trip id="veh52" type="veh_passenger" depart="1912.5" departLane="best" from="785902529" to="-785902540#1"/>
<trip id="veh3260" type="veh_passenger" depart="1912.5" departLane="best" from="-732022517" to="-785902529"/>
<trip id="veh6484" type="veh_passenger" depart="1920.0" departLane="best" from="-785902540#2" to="-785902540#1"/>
<trip id="veh9775" type="veh_passenger" depart="1920.0" departLane="best" from="785902540#0" to="785902540#2"/>
<trip id="veh53" type="veh_passenger" depart="1926.5625" departLane="best" from="785902529" to="732022517"/>
<trip id="veh6485" type="veh_passenger" depart="1940.0" departLane="best" from="-785902540#2" to="-785902529"/>
<trip id="veh54" type="veh_passenger" depart="1940.625" departLane="best" from="785902529" to="-785902540#1"/>
<trip id="veh55" type="veh_passenger" depart="1954.6875" departLane="best" from="785902529" to="732022517"/>
<trip id="veh6486" type="veh_passenger" depart="1960.0" departLane="best" from="-785902540#2" to="-785902540#1"/>
<trip id="veh56" type="veh_passenger" depart="1968.75" departLane="best" from="785902529" to="-785902540#1"/>
<trip id="veh3261" type="veh_passenger" depart="1968.75" departLane="best" from="-732022517" to="-785902529"/>
<trip id="veh6487" type="veh_passenger" depart="1980.0" departLane="best" from="-785902540#2" to="-785902540#1"/>
<trip id="veh9776" type="veh_passenger" depart="1980.0" departLane="best" from="785902540#0" to="732022517"/>
<trip id="veh57" type="veh_passenger" depart="1982.8125" departLane="best" from="785902529" to="-785902540#1"/>
<trip id="veh58" type="veh_passenger" depart="1996.875" departLane="best" from="785902529" to="-785902540#1"/>
<trip id="veh6488" type="veh_passenger" depart="2000.0" departLane="best" from="-785902540#2" to="-785902540#1"/>
<trip id="veh59" type="veh_passenger" depart="2010.9375" departLane="best" from="785902529" to="-785902540#1"/>
<trip id="veh6489" type="veh_passenger" depart="2020.0" departLane="best" from="-785902540#2" to="-785902529"/>
<trip id="veh60" type="veh_passenger" depart="2025.0" departLane="best" from="785902529" to="732022517"/>
<trip id="veh3262" type="veh_passenger" depart="2025.0" departLane="best" from="-732022517" to="-785902529"/>
<trip id="veh61" type="veh_passenger" depart="2039.0625" departLane="best" from="785902529" to="-785902540#1"/>
<trip id="veh6490" type="veh_passenger" depart="2040.0" departLane="best" from="-785902540#2" to="-785902529"/>
<trip id="veh9777" type="veh_passenger" depart="2040.0" departLane="best" from="785902540#0" to="732022517"/>
<trip id="veh62" type="veh_passenger" depart="2053.125" departLane="best" from="785902529" to="-785902540#1"/>
<trip id="veh6491" type="veh_passenger" depart="2060.0" departLane="best" from="-785902540#2" to="-785902529"/>
<trip id="veh63" type="veh_passenger" depart="2067.1875" departLane="best" from="785902529" to="732022517"/>
<trip id="veh6492" type="veh_passenger" depart="2080.0" departLane="best" from="-785902540#2" to="-785902540#1"/>
<trip id="veh64" type="veh_passenger" depart="2081.25" departLane="best" from="785902529" to="732022517"/>
<trip id="veh3263" type="veh_passenger" depart="2081.25" departLane="best" from="-732022517" to="-785902529"/>
<trip id="veh65" type="veh_passenger" depart="2095.3125" departLane="best" from="785902529" to="732022517"/>
<trip id="veh6493" type="veh_passenger" depart="2100.0" departLane="best" from="-785902540#2" to="-785902540#1"/>
<trip id="veh9778" type="veh_passenger" depart="2100.0" departLane="best" from="785902540#0" to="785902540#2"/>
<trip id="veh66" type="veh_passenger" depart="2109.375" departLane="best" from="785902529" to="-785902540#1"/>
<trip id="veh6494" type="veh_passenger" depart="2120.0" departLane="best" from="-785902540#2" to="-785902540#1"/>
<trip id="veh67" type="veh_passenger" depart="2123.4375" departLane="best" from="785902529" to="-785902540#1"/>
<trip id="veh68" type="veh_passenger" depart="2137.5" departLane="best" from="785902529" to="-785902540#1"/>
<trip id="veh3264" type="veh_passenger" depart="2137.5" departLane="best" from="-732022517" to="-785902529"/>